20
FORCE:  0.017585  ...  ENERGY:  -124.15655655
Sr    1.9434040846232    1.9434040846232    1.9434039459060 
Sr    1.9434040846232    1.9434040846232    5.8302121431905 
Sr    1.9434040846232    1.9434040846232    9.7295853336919 
Sr    1.9434040846232    1.9434040846232   13.4638889156151 
Fe    0.0000000000000    0.0000000000000    0.0000000000000 
Fe    0.0000000000000    0.0000000000000    3.8868081972844 
Fe    0.0000000000000    0.0000000000000    7.8063660827218 
Fe    0.0000000000000    0.0000000000000   11.7587365836116 
 O    1.9434040846232    0.0000000000000   -0.0000000000000 
 O    1.9434040846232    0.0000000000000    3.8868081972844 
 O    1.9434040846232    0.0000000000000    7.7968463431304 
 O    1.9434040846232    0.0000000000000   11.7421812053900 
 O    0.0000000000000    1.9434040846232    0.0000000000000 
 O    0.0000000000000    1.9434040846232    3.8868081972844 
 O    0.0000000000000    1.9434040846232    7.7968463431304 
 O    0.0000000000000    1.9434040846232   11.7421812053900 
 O    0.0000000000000    0.0000000000000    1.9434039459060 
 O    0.0000000000000    0.0000000000000    5.8302121431905 
 O    0.0000000000000    0.0000000000000    9.7813164612857 
 O    0.0000000000000    0.0000000000000   13.7051256050948 
20
FORCE:  0.028097  ...  ENERGY:  -124.15383980
Sr    1.9434040846232    1.9434040846232    1.9434039459060 
Sr    1.9434040846232    1.9434040846232    5.8302121431905 
Sr    1.9434040846232    1.9434040846232    9.7298223802175 
Sr    1.9434040846232    1.9434040846232   13.4646877257496 
Fe    0.0000000000000    0.0000000000000    0.0000000000000 
Fe    0.0000000000000    0.0000000000000    3.8868081972844 
Fe    0.0000000000000    0.0000000000000    7.8072143793733 
Fe    0.0000000000000    0.0000000000000   11.7593670784940 
 O    1.9434040846232    0.0000000000000   -0.0000000000000 
 O    1.9434040846232    0.0000000000000    3.8868081972844 
 O    1.9434040846232    0.0000000000000    7.7967412606500 
 O    1.9434040846232    0.0000000000000   11.7419194156059 
 O    0.0000000000000    1.9434040846232    0.0000000000000 
 O    0.0000000000000    1.9434040846232    3.8868081972844 
 O    0.0000000000000    1.9434040846232    7.7967412606500 
 O    0.0000000000000    1.9434040846232   11.7419194156059 
 O    0.0000000000000    0.0000000000000    1.9434039459060 
 O    0.0000000000000    0.0000000000000    5.8302121431905 
 O    0.0000000000000    0.0000000000000    9.7816885265798 
 O    0.0000000000000    0.0000000000000   13.7043885003703 
20
FORCE:  0.017034  ...  ENERGY:  -124.16065236
Sr    1.9434040846232    1.9434040846232    1.9434039459060 
Sr    1.9434040846232    1.9434040846232    5.8302121431905 
Sr    1.9434040846232    1.9434040846232    9.7297032460101 
Sr    1.9434040846232    1.9434040846232   13.4642860296399 
Fe    0.0000000000000    0.0000000000000    0.0000000000000 
Fe    0.0000000000000    0.0000000000000    3.8868081972844 
Fe    0.0000000000000    0.0000000000000    7.8067876345328 
Fe    0.0000000000000    0.0000000000000   11.7590499982188 
 O    1.9434040846232    0.0000000000000   -0.0000000000000 
 O    1.9434040846232    0.0000000000000    3.8868081972844 
 O    1.9434040846232    0.0000000000000    7.7967941073625 
 O    1.9434040846232    0.0000000000000   11.7420510741788 
 O    0.0000000000000    1.9434040846232    0.0000000000000 
 O    0.0000000000000    1.9434040846232    3.8868081972844 
 O    0.0000000000000    1.9434040846232    7.7967941073625 
 O    0.0000000000000    1.9434040846232   11.7420510741788 
 O    0.0000000000000    0.0000000000000    1.9434039459060 
 O    0.0000000000000    0.0000000000000    5.8302121431905 
 O    0.0000000000000    0.0000000000000    9.7815012720434 
 O    0.0000000000000    0.0000000000000   13.7047590383027 
20
FORCE:  0.012698  ...  ENERGY:  -124.16077524
Sr    1.9434040846232    1.9434040846232    1.9434039459060 
Sr    1.9434040846232    1.9434040846232    5.8302121431905 
Sr    1.9434040846232    1.9434040846232    9.7296656729139 
Sr    1.9434040846232    1.9434040846232   13.4641592586243 
Fe    0.0000000000000    0.0000000000000    0.0000000000000 
Fe    0.0000000000000    0.0000000000000    3.8868081972844 
Fe    0.0000000000000    0.0000000000000    7.8066532267090 
Fe    0.0000000000000    0.0000000000000   11.7589501087680 
 O    1.9434040846232    0.0000000000000   -0.0000000000000 
 O    1.9434040846232    0.0000000000000    3.8868081972844 
 O    1.9434040846232    0.0000000000000    7.7968109083405 
 O    1.9434040846232    0.0000000000000   11.7420926184152 
 O    0.0000000000000    1.9434040846232    0.0000000000000 
 O    0.0000000000000    1.9434040846232    3.8868081972844 
 O    0.0000000000000    1.9434040846232    7.7968109083405 
 O    0.0000000000000    1.9434040846232   11.7420926184152 
 O    0.0000000000000    0.0000000000000    1.9434039459060 
 O    0.0000000000000    0.0000000000000    5.8302121431905 
 O    0.0000000000000    0.0000000000000    9.7814423158844 
 O    0.0000000000000    0.0000000000000   13.7048760342039 
20
FORCE:  0.013472  ...  ENERGY:  -124.16082318
Sr    1.9434040846232    1.9434040846232    1.9434039459060 
Sr    1.9434040846232    1.9434040846232    5.8302121431905 
Sr    1.9434040846232    1.9434040846232    9.7296308490686 
Sr    1.9434040846232    1.9434040846232   13.4640416517785 
Fe    0.0000000000000    0.0000000000000    0.0000000000000 
Fe    0.0000000000000    0.0000000000000    3.8868081972844 
Fe    0.0000000000000    0.0000000000000    7.8065282885274 
Fe    0.0000000000000    0.0000000000000   11.7588572451807 
 O    1.9434040846232    0.0000000000000   -0.0000000000000 
 O    1.9434040846232    0.0000000000000    3.8868081972844 
 O    1.9434040846232    0.0000000000000    7.7968261819568 
 O    1.9434040846232    0.0000000000000   11.7421311079284 
 O    0.0000000000000    1.9434040846232    0.0000000000000 
 O    0.0000000000000    1.9434040846232    3.8868081972844 
 O    0.0000000000000    1.9434040846232    7.7968261819568 
 O    0.0000000000000    1.9434040846232   11.7421311079284 
 O    0.0000000000000    0.0000000000000    1.9434039459060 
 O    0.0000000000000    0.0000000000000    5.8302121431905 
 O    0.0000000000000    0.0000000000000    9.7813876363379 
 O    0.0000000000000    0.0000000000000   13.7049844768799 
20
FORCE:  0.011191  ...  ENERGY:  -124.16084808
Sr    1.9434040846232    1.9434040846232    1.9434039459060 
Sr    1.9434040846232    1.9434040846232    5.8302121431905 
Sr    1.9434040846232    1.9434040846232    9.7296082441164 
Sr    1.9434040846232    1.9434040846232   13.4639652836968 
Fe    0.0000000000000    0.0000000000000    0.0000000000000 
Fe    0.0000000000000    0.0000000000000    3.8868081972844 
Fe    0.0000000000000    0.0000000000000    7.8064473383608 
Fe    0.0000000000000    0.0000000000000   11.7587967616600 
 O    1.9434040846232    0.0000000000000   -0.0000000000000 
 O    1.9434040846232    0.0000000000000    3.8868081972844 
 O    1.9434040846232    0.0000000000000    7.7968362625436 
 O    1.9434040846232    0.0000000000000   11.7421561566592 
 O    0.0000000000000    1.9434040846232    0.0000000000000 
 O    0.0000000000000    1.9434040846232    3.8868081972844 
 O    0.0000000000000    1.9434040846232    7.7968362625436 
 O    0.0000000000000    1.9434040846232   11.7421561566592 
 O    0.0000000000000    0.0000000000000    1.9434039459060 
 O    0.0000000000000    0.0000000000000    5.8302121431905 
 O    0.0000000000000    0.0000000000000    9.7813518960757 
 O    0.0000000000000    0.0000000000000   13.7050550409873 
20
FORCE:  0.009440  ...  ENERGY:  -124.16086333
Sr    1.9434040846232    1.9434040846232    1.9434039459060 
Sr    1.9434040846232    1.9434040846232    5.8302121431905 
Sr    1.9434040846232    1.9434040846232    9.7295969416403 
Sr    1.9434040846232    1.9434040846232   13.4639270996560 
Fe    0.0000000000000    0.0000000000000    0.0000000000000 
Fe    0.0000000000000    0.0000000000000    3.8868081972844 
Fe    0.0000000000000    0.0000000000000    7.8064067105413 
Fe    0.0000000000000    0.0000000000000   11.7587668253719 
 O    1.9434040846232    0.0000000000000   -0.0000000000000 
 O    1.9434040846232    0.0000000000000    3.8868081972844 
 O    1.9434040846232    0.0000000000000    7.7968411501008 
 O    1.9434040846232    0.0000000000000   11.7421686810246 
 O    0.0000000000000    1.9434040846232    0.0000000000000 
 O    0.0000000000000    1.9434040846232    3.8868081972844 
 O    0.0000000000000    1.9434040846232    7.7968411501008 
 O    0.0000000000000    1.9434040846232   11.7421686810246 
 O    0.0000000000000    0.0000000000000    1.9434039459060 
 O    0.0000000000000    0.0000000000000    5.8302121431905 
 O    0.0000000000000    0.0000000000000    9.7813341786807 
 O    0.0000000000000    0.0000000000000   13.7050904757772 
