21
FORCE:  2.949126  ...  ENERGY:  -124.37912718
Sr    1.9434040846232    1.9434040846232    1.9434039459060 
Sr    1.9434040846232    1.9434040846232    5.8302121431905 
Sr    1.9434040846232    1.9434040846232    9.7721803949367 
Sr    1.9434040846232    1.9434040846232   13.5902762579822 
Fe    0.0000000000000    0.0000000000000    0.0000000000000 
Fe    0.0000000000000    0.0000000000000    3.8868081972844 
Fe    0.0000000000000    0.0000000000000    7.8131723116346 
Fe    0.0000000000000    0.0000000000000   11.7472269972835 
 O    1.9434040846232    0.0000000000000   -0.0000000000000 
 O    1.9434040846232    0.0000000000000    3.8868081972844 
 O    1.9434040846232    0.0000000000000    7.8060719128712 
 O    1.9434040846232    0.0000000000000   11.7148900022440 
 O    0.0000000000000    1.9434040846232    0.0000000000000 
 O    0.0000000000000    1.9434040846232    3.8868081972844 
 O    0.0000000000000    1.9434040846232    7.8060719128712 
 O    0.0000000000000    1.9434040846232   11.7148900022440 
 O    0.0000000000000    0.0000000000000    1.9434039459060 
 O    0.0000000000000    0.0000000000000    5.8302121431905 
 O    0.0000000000000    0.0000000000000    9.7960955179272 
 O    0.0000000000000    0.0000000000000   13.6051863622518 
 O    1.9434040846232    1.9434040846232   16.1480171276167 
21
FORCE:  0.274953  ...  ENERGY:  -126.61737661
Sr    1.9434040846232    1.9434040846232    1.9434039459060 
Sr    1.9434040846232    1.9434040846232    5.8302121431905 
Sr    1.9434040846232    1.9434040846232    9.7854308680550 
Sr    1.9434040846232    1.9434040846232   13.5725044889554 
Fe    0.0000000000000    0.0000000000000    0.0000000000000 
Fe    0.0000000000000    0.0000000000000    3.8868081972844 
Fe    0.0000000000000    0.0000000000000    7.8063743304747 
Fe    0.0000000000000    0.0000000000000   11.7385338658083 
 O    1.9434040846232    0.0000000000000   -0.0000000000000 
 O    1.9434040846232    0.0000000000000    3.8868081972844 
 O    1.9434040846232    0.0000000000000    7.7995522170009 
 O    1.9434040846232    0.0000000000000   11.7127449755654 
 O    0.0000000000000    1.9434040846232    0.0000000000000 
 O    0.0000000000000    1.9434040846232    3.8868081972844 
 O    0.0000000000000    1.9434040846232    7.7995522170009 
 O    0.0000000000000    1.9434040846232   11.7127449755654 
 O    0.0000000000000    0.0000000000000    1.9434039459060 
 O    0.0000000000000    0.0000000000000    5.8302121431905 
 O    0.0000000000000    0.0000000000000    9.7897835432392 
 O    0.0000000000000    0.0000000000000   13.5963695144843 
 O    1.9434040846232    1.9434040846232   16.2902905583375 
21
FORCE:  0.254774  ...  ENERGY:  -126.61776799
Sr    1.9434040846232    1.9434040846232    1.9434039459060 
Sr    1.9434040846232    1.9434040846232    5.8302121431905 
Sr    1.9434040846232    1.9434040846232    9.7853822979551 
Sr    1.9434040846232    1.9434040846232   13.5725698600333 
Fe    0.0000000000000    0.0000000000000    0.0000000000000 
Fe    0.0000000000000    0.0000000000000    3.8868081972844 
Fe    0.0000000000000    0.0000000000000    7.8063990737331 
Fe    0.0000000000000    0.0000000000000   11.7385659404026 
 O    1.9434040846232    0.0000000000000   -0.0000000000000 
 O    1.9434040846232    0.0000000000000    3.8868081972844 
 O    1.9434040846232    0.0000000000000    7.7995760438424 
 O    1.9434040846232    0.0000000000000   11.7127526123736 
 O    0.0000000000000    1.9434040846232    0.0000000000000 
 O    0.0000000000000    1.9434040846232    3.8868081972844 
 O    0.0000000000000    1.9434040846232    7.7995760438424 
 O    0.0000000000000    1.9434040846232   11.7127526123736 
 O    0.0000000000000    0.0000000000000    1.9434039459060 
 O    0.0000000000000    0.0000000000000    5.8302121431905 
 O    0.0000000000000    0.0000000000000    9.7898067591360 
 O    0.0000000000000    0.0000000000000   13.5964018945509 
 O    1.9434040846232    1.9434040846232   16.2897682006587 
21
FORCE:  0.242829  ...  ENERGY:  -126.62147369
Sr    1.9434040846232    1.9434040846232    1.9434039459060 
Sr    1.9434040846232    1.9434040846232    5.8302121431905 
Sr    1.9434040846232    1.9434040846232    9.7841985926888 
Sr    1.9434040846232    1.9434040846232   13.5741570942432 
Fe    0.0000000000000    0.0000000000000    0.0000000000000 
Fe    0.0000000000000    0.0000000000000    3.8868081972844 
Fe    0.0000000000000    0.0000000000000    7.8070063527188 
Fe    0.0000000000000    0.0000000000000   11.7393424510573 
 O    1.9434040846232    0.0000000000000   -0.0000000000000 
 O    1.9434040846232    0.0000000000000    3.8868081972844 
 O    1.9434040846232    0.0000000000000    7.8001585795696 
 O    1.9434040846232    0.0000000000000   11.7129444489948 
 O    0.0000000000000    1.9434040846232    0.0000000000000 
 O    0.0000000000000    1.9434040846232    3.8868081972844 
 O    0.0000000000000    1.9434040846232    7.8001585795696 
 O    0.0000000000000    1.9434040846232   11.7129444489948 
 O    0.0000000000000    0.0000000000000    1.9434039459060 
 O    0.0000000000000    0.0000000000000    5.8302121431905 
 O    0.0000000000000    0.0000000000000    9.7903706610512 
 O    0.0000000000000    0.0000000000000   13.5971894022093 
 O    1.9434040846232    1.9434040846232   16.2770596354481 
21
FORCE:  0.119654  ...  ENERGY:  -126.63790856
Sr    1.9434040846232    1.9434040846232    1.9434039459060 
Sr    1.9434040846232    1.9434040846232    5.8302121431905 
Sr    1.9434040846232    1.9434040846232    9.7781896465489 
Sr    1.9434040846232    1.9434040846232   13.5822166761127 
Fe    0.0000000000000    0.0000000000000    0.0000000000000 
Fe    0.0000000000000    0.0000000000000    3.8868081972844 
Fe    0.0000000000000    0.0000000000000    7.8100894849128 
Fe    0.0000000000000    0.0000000000000   11.7432845714343 
 O    1.9434040846232    0.0000000000000   -0.0000000000000 
 O    1.9434040846232    0.0000000000000    3.8868081972844 
 O    1.9434040846232    0.0000000000000    7.8031152462204 
 O    1.9434040846232    0.0000000000000   11.7139170728833 
 O    0.0000000000000    1.9434040846232    0.0000000000000 
 O    0.0000000000000    1.9434040846232    3.8868081972844 
 O    0.0000000000000    1.9434040846232    7.8031152462204 
 O    0.0000000000000    1.9434040846232   11.7139170728833 
 O    0.0000000000000    0.0000000000000    1.9434039459060 
 O    0.0000000000000    0.0000000000000    5.8302121431905 
 O    0.0000000000000    0.0000000000000    9.7932329367530 
 O    0.0000000000000    0.0000000000000   13.6011880349667 
 O    1.9434040846232    1.9434040846232   16.2125383815324 
21
FORCE:  0.048142  ...  ENERGY:  -126.64191789
Sr    1.9434040846232    1.9434040846232    1.9434039459060 
Sr    1.9434040846232    1.9434040846232    5.8302121431905 
Sr    1.9434040846232    1.9434040846232    9.7751850207428 
Sr    1.9434040846232    1.9434040846232   13.5862464670474 
Fe    0.0000000000000    0.0000000000000    0.0000000000000 
Fe    0.0000000000000    0.0000000000000    3.8868081972844 
Fe    0.0000000000000    0.0000000000000    7.8116308982737 
Fe    0.0000000000000    0.0000000000000   11.7452557843589 
 O    1.9434040846232    0.0000000000000   -0.0000000000000 
 O    1.9434040846232    0.0000000000000    3.8868081972844 
 O    1.9434040846232    0.0000000000000    7.8045937322819 
 O    1.9434040846232    0.0000000000000   11.7144036902998 
 O    0.0000000000000    1.9434040846232    0.0000000000000 
 O    0.0000000000000    1.9434040846232    3.8868081972844 
 O    0.0000000000000    1.9434040846232    7.8045937322819 
 O    0.0000000000000    1.9434040846232   11.7144036902998 
 O    0.0000000000000    0.0000000000000    1.9434039459060 
 O    0.0000000000000    0.0000000000000    5.8302121431905 
 O    0.0000000000000    0.0000000000000    9.7946640746040 
 O    0.0000000000000    0.0000000000000   13.6031870458731 
 O    1.9434040846232    1.9434040846232   16.1802777545746 
21
FORCE:  0.041335  ...  ENERGY:  -126.64314533
Sr    1.9434040846232    1.9434040846232    1.9434039459060 
Sr    1.9434040846232    1.9434040846232    5.8302121431905 
Sr    1.9434040846232    1.9434040846232    9.7736827078398 
Sr    1.9434040846232    1.9434040846232   13.5882613625148 
Fe    0.0000000000000    0.0000000000000    0.0000000000000 
Fe    0.0000000000000    0.0000000000000    3.8868081972844 
Fe    0.0000000000000    0.0000000000000    7.8124016049542 
Fe    0.0000000000000    0.0000000000000   11.7462412380851 
 O    1.9434040846232    0.0000000000000   -0.0000000000000 
 O    1.9434040846232    0.0000000000000    3.8868081972844 
 O    1.9434040846232    0.0000000000000    7.8053329753127 
 O    1.9434040846232    0.0000000000000   11.7146468462719 
 O    0.0000000000000    1.9434040846232    0.0000000000000 
 O    0.0000000000000    1.9434040846232    3.8868081972844 
 O    0.0000000000000    1.9434040846232    7.8053329753127 
 O    0.0000000000000    1.9434040846232   11.7146468462719 
 O    0.0000000000000    0.0000000000000    1.9434039459060 
 O    0.0000000000000    0.0000000000000    5.8302121431905 
 O    0.0000000000000    0.0000000000000    9.7953797962656 
 O    0.0000000000000    0.0000000000000   13.6041868567986 
 O    1.9434040846232    1.9434040846232   16.1641472883595 
21
FORCE:  0.047038  ...  ENERGY:  -126.64238849
Sr    1.9434040846232    1.9434040846232    1.9434039459060 
Sr    1.9434040846232    1.9434040846232    5.8302121431905 
Sr    1.9434040846232    1.9434040846232    9.7739729065502 
Sr    1.9434040846232    1.9434040846232   13.5878724962428 
Fe    0.0000000000000    0.0000000000000    0.0000000000000 
Fe    0.0000000000000    0.0000000000000    3.8868081972844 
Fe    0.0000000000000    0.0000000000000    7.8122528399310 
Fe    0.0000000000000    0.0000000000000   11.7460512342978 
 O    1.9434040846232    0.0000000000000   -0.0000000000000 
 O    1.9434040846232    0.0000000000000    3.8868081972844 
 O    1.9434040846232    0.0000000000000    7.8051900142638 
 O    1.9434040846232    0.0000000000000   11.7145998035336 
 O    0.0000000000000    1.9434040846232    0.0000000000000 
 O    0.0000000000000    1.9434040846232    3.8868081972844 
 O    0.0000000000000    1.9434040846232    7.8051900142638 
 O    0.0000000000000    1.9434040846232   11.7145998035336 
 O    0.0000000000000    0.0000000000000    1.9434039459060 
 O    0.0000000000000    0.0000000000000    5.8302121431905 
 O    0.0000000000000    0.0000000000000    9.7952417227739 
 O    0.0000000000000    0.0000000000000   13.6039937982881 
 O    1.9434040846232    1.9434040846232   16.1672609677862 
21
FORCE:  0.040171  ...  ENERGY:  -126.64310773
Sr    1.9434040846232    1.9434040846232    1.9434039459060 
Sr    1.9434040846232    1.9434040846232    5.8302121431905 
Sr    1.9434040846232    1.9434040846232    9.7737422749435 
Sr    1.9434040846232    1.9434040846232   13.5881816342375 
Fe    0.0000000000000    0.0000000000000    0.0000000000000 
Fe    0.0000000000000    0.0000000000000    3.8868081972844 
Fe    0.0000000000000    0.0000000000000    7.8123710577215 
Fe    0.0000000000000    0.0000000000000   11.7462024430996 
 O    1.9434040846232    0.0000000000000   -0.0000000000000 
 O    1.9434040846232    0.0000000000000    3.8868081972844 
 O    1.9434040846232    0.0000000000000    7.8053036499693 
 O    1.9434040846232    0.0000000000000   11.7146370711574 
 O    0.0000000000000    1.9434040846232    0.0000000000000 
 O    0.0000000000000    1.9434040846232    3.8868081972844 
 O    0.0000000000000    1.9434040846232    7.8053036499693 
 O    0.0000000000000    1.9434040846232   11.7146370711574 
 O    0.0000000000000    0.0000000000000    1.9434039459060 
 O    0.0000000000000    0.0000000000000    5.8302121431905 
 O    0.0000000000000    0.0000000000000    9.7953513873392 
 O    0.0000000000000    0.0000000000000   13.6041471453961 
 O    1.9434040846232    1.9434040846232   16.1647851145778 
21
FORCE:  0.042266  ...  ENERGY:  -126.64301633
Sr    1.9434040846232    1.9434040846232    1.9434039459060 
Sr    1.9434040846232    1.9434040846232    5.8302121431905 
Sr    1.9434040846232    1.9434040846232    9.7738433862836 
Sr    1.9434040846232    1.9434040846232   13.5880460045244 
Fe    0.0000000000000    0.0000000000000    0.0000000000000 
Fe    0.0000000000000    0.0000000000000    3.8868081972844 
Fe    0.0000000000000    0.0000000000000    7.8123191274259 
Fe    0.0000000000000    0.0000000000000   11.7461358501323 
 O    1.9434040846232    0.0000000000000   -0.0000000000000 
 O    1.9434040846232    0.0000000000000    3.8868081972844 
 O    1.9434040846232    0.0000000000000    7.8052538579801 
 O    1.9434040846232    0.0000000000000   11.7146208811241 
 O    0.0000000000000    1.9434040846232    0.0000000000000 
 O    0.0000000000000    1.9434040846232    3.8868081972844 
 O    0.0000000000000    1.9434040846232    7.8052538579801 
 O    0.0000000000000    1.9434040846232   11.7146208811241 
 O    0.0000000000000    0.0000000000000    1.9434039459060 
 O    0.0000000000000    0.0000000000000    5.8302121431905 
 O    0.0000000000000    0.0000000000000    9.7953034281839 
 O    0.0000000000000    0.0000000000000   13.6040799414843 
 O    1.9434040846232    1.9434040846232   16.1658713741718 
21
FORCE:  0.039496  ...  ENERGY:  -126.64296515
Sr    1.9434040846232    1.9434040846232    1.9434039459060 
Sr    1.9434040846232    1.9434040846232    5.8302121431905 
Sr    1.9434040846232    1.9434040846232    9.7737884012648 
Sr    1.9434040846232    1.9434040846232   13.5881199288275 
Fe    0.0000000000000    0.0000000000000    0.0000000000000 
Fe    0.0000000000000    0.0000000000000    3.8868081972844 
Fe    0.0000000000000    0.0000000000000    7.8123475363523 
Fe    0.0000000000000    0.0000000000000   11.7461722013392 
 O    1.9434040846232    0.0000000000000   -0.0000000000000 
 O    1.9434040846232    0.0000000000000    3.8868081972844 
 O    1.9434040846232    0.0000000000000    7.8052810450172 
 O    1.9434040846232    0.0000000000000   11.7146297398216 
 O    0.0000000000000    1.9434040846232    0.0000000000000 
 O    0.0000000000000    1.9434040846232    3.8868081972844 
 O    0.0000000000000    1.9434040846232    7.8052810450172 
 O    0.0000000000000    1.9434040846232   11.7146297398216 
 O    0.0000000000000    0.0000000000000    1.9434039459060 
 O    0.0000000000000    0.0000000000000    5.8302121431905 
 O    0.0000000000000    0.0000000000000    9.7953296988040 
 O    0.0000000000000    0.0000000000000   13.6041165981635 
 O    1.9434040846232    1.9434040846232   16.1652799797471 
21
FORCE:  0.040124  ...  ENERGY:  -126.64294059
Sr    1.9434040846232    1.9434040846232    1.9434039459060 
Sr    1.9434040846232    1.9434040846232    5.8302121431905 
Sr    1.9434040846232    1.9434040846232    9.7737508281686 
Sr    1.9434040846232    1.9434040846232   13.5881700262891 
Fe    0.0000000000000    0.0000000000000    0.0000000000000 
Fe    0.0000000000000    0.0000000000000    3.8868081972844 
Fe    0.0000000000000    0.0000000000000    7.8123667811089 
Fe    0.0000000000000    0.0000000000000   11.7461966391254 
 O    1.9434040846232    0.0000000000000   -0.0000000000000 
 O    1.9434040846232    0.0000000000000    3.8868081972844 
 O    1.9434040846232    0.0000000000000    7.8052993733568 
 O    1.9434040846232    0.0000000000000   11.7146358492681 
 O    0.0000000000000    1.9434040846232    0.0000000000000 
 O    0.0000000000000    1.9434040846232    3.8868081972844 
 O    0.0000000000000    1.9434040846232    7.8052993733568 
 O    0.0000000000000    1.9434040846232   11.7146358492681 
 O    0.0000000000000    0.0000000000000    1.9434039459060 
 O    0.0000000000000    0.0000000000000    5.8302121431905 
 O    0.0000000000000    0.0000000000000    9.7953474161989 
 O    0.0000000000000    0.0000000000000   13.6041416468943 
 O    1.9434040846232    1.9434040846232   16.1648776726928 
21
FORCE:  0.041120  ...  ENERGY:  -126.64299897
Sr    1.9434040846232    1.9434040846232    1.9434039459060 
Sr    1.9434040846232    1.9434040846232    5.8302121431905 
Sr    1.9434040846232    1.9434040846232    9.7737438023051 
Sr    1.9434040846232    1.9434040846232   13.5881794959312 
Fe    0.0000000000000    0.0000000000000    0.0000000000000 
Fe    0.0000000000000    0.0000000000000    3.8868081972844 
Fe    0.0000000000000    0.0000000000000    7.8123701413045 
Fe    0.0000000000000    0.0000000000000   11.7462012212103 
 O    1.9434040846232    0.0000000000000   -0.0000000000000 
 O    1.9434040846232    0.0000000000000    3.8868081972844 
 O    1.9434040846232    0.0000000000000    7.8053027335524 
 O    1.9434040846232    0.0000000000000   11.7146370711574 
 O    0.0000000000000    1.9434040846232    0.0000000000000 
 O    0.0000000000000    1.9434040846232    3.8868081972844 
 O    0.0000000000000    1.9434040846232    7.8053027335524 
 O    0.0000000000000    1.9434040846232   11.7146370711574 
 O    0.0000000000000    0.0000000000000    1.9434039459060 
 O    0.0000000000000    0.0000000000000    5.8302121431905 
 O    0.0000000000000    0.0000000000000    9.7953507763945 
 O    0.0000000000000    0.0000000000000   13.6041462289792 
 O    1.9434040846232    1.9434040846232   16.1648028319727 
21
FORCE:  0.040118  ...  ENERGY:  -126.64294259
Sr    1.9434040846232    1.9434040846232    1.9434039459060 
Sr    1.9434040846232    1.9434040846232    5.8302121431905 
Sr    1.9434040846232    1.9434040846232    9.7737425804158 
Sr    1.9434040846232    1.9434040846232   13.5881810232929 
Fe    0.0000000000000    0.0000000000000    0.0000000000000 
Fe    0.0000000000000    0.0000000000000    3.8868081972844 
Fe    0.0000000000000    0.0000000000000    7.8123707522492 
Fe    0.0000000000000    0.0000000000000   11.7462021376272 
 O    1.9434040846232    0.0000000000000   -0.0000000000000 
 O    1.9434040846232    0.0000000000000    3.8868081972844 
 O    1.9434040846232    0.0000000000000    7.8053033444970 
 O    1.9434040846232    0.0000000000000   11.7146370711574 
 O    0.0000000000000    1.9434040846232    0.0000000000000 
 O    0.0000000000000    1.9434040846232    3.8868081972844 
 O    0.0000000000000    1.9434040846232    7.8053033444970 
 O    0.0000000000000    1.9434040846232   11.7146370711574 
 O    0.0000000000000    0.0000000000000    1.9434039459060 
 O    0.0000000000000    0.0000000000000    5.8302121431905 
 O    0.0000000000000    0.0000000000000    9.7953513873392 
 O    0.0000000000000    0.0000000000000   13.6041468399238 
 O    1.9434040846232    1.9434040846232   16.1647909185520 
21
FORCE:  0.041816  ...  ENERGY:  -126.64333735
Sr    1.9434040846232    1.9434040846232    1.9434039459060 
Sr    1.9434040846232    1.9434040846232    5.8302121431905 
Sr    1.9434040846232    1.9434040846232    9.7737422749435 
Sr    1.9434040846232    1.9434040846232   13.5881816342375 
Fe    0.0000000000000    0.0000000000000    0.0000000000000 
Fe    0.0000000000000    0.0000000000000    3.8868081972844 
Fe    0.0000000000000    0.0000000000000    7.8123710577215 
Fe    0.0000000000000    0.0000000000000   11.7462024430996 
 O    1.9434040846232    0.0000000000000   -0.0000000000000 
 O    1.9434040846232    0.0000000000000    3.8868081972844 
 O    1.9434040846232    0.0000000000000    7.8053036499693 
 O    1.9434040846232    0.0000000000000   11.7146370711574 
 O    0.0000000000000    1.9434040846232    0.0000000000000 
 O    0.0000000000000    1.9434040846232    3.8868081972844 
 O    0.0000000000000    1.9434040846232    7.8053036499693 
 O    0.0000000000000    1.9434040846232   11.7146370711574 
 O    0.0000000000000    0.0000000000000    1.9434039459060 
 O    0.0000000000000    0.0000000000000    5.8302121431905 
 O    0.0000000000000    0.0000000000000    9.7953513873392 
 O    0.0000000000000    0.0000000000000   13.6041471453961 
 O    1.9434040846232    1.9434040846232   16.1647863364671 
21
FORCE:  0.040128  ...  ENERGY:  -126.64301985
Sr    1.9434040846232    1.9434040846232    1.9434039459060 
Sr    1.9434040846232    1.9434040846232    5.8302121431905 
Sr    1.9434040846232    1.9434040846232    9.7737425804158 
Sr    1.9434040846232    1.9434040846232   13.5881813287652 
Fe    0.0000000000000    0.0000000000000    0.0000000000000 
Fe    0.0000000000000    0.0000000000000    3.8868081972844 
Fe    0.0000000000000    0.0000000000000    7.8123710577215 
Fe    0.0000000000000    0.0000000000000   11.7462021376272 
 O    1.9434040846232    0.0000000000000   -0.0000000000000 
 O    1.9434040846232    0.0000000000000    3.8868081972844 
 O    1.9434040846232    0.0000000000000    7.8053033444970 
 O    1.9434040846232    0.0000000000000   11.7146370711574 
 O    0.0000000000000    1.9434040846232    0.0000000000000 
 O    0.0000000000000    1.9434040846232    3.8868081972844 
 O    0.0000000000000    1.9434040846232    7.8053033444970 
 O    0.0000000000000    1.9434040846232   11.7146370711574 
 O    0.0000000000000    0.0000000000000    1.9434039459060 
 O    0.0000000000000    0.0000000000000    5.8302121431905 
 O    0.0000000000000    0.0000000000000    9.7953513873392 
 O    0.0000000000000    0.0000000000000   13.6041471453961 
 O    1.9434040846232    1.9434040846232   16.1647884747734 
21
FORCE:  0.041144  ...  ENERGY:  -126.64302387
Sr    1.9434040846232    1.9434040846232    1.9434039459060 
Sr    1.9434040846232    1.9434040846232    5.8302121431905 
Sr    1.9434040846232    1.9434040846232    9.7737422749435 
Sr    1.9434040846232    1.9434040846232   13.5881813287652 
Fe    0.0000000000000    0.0000000000000    0.0000000000000 
Fe    0.0000000000000    0.0000000000000    3.8868081972844 
Fe    0.0000000000000    0.0000000000000    7.8123710577215 
Fe    0.0000000000000    0.0000000000000   11.7462021376272 
 O    1.9434040846232    0.0000000000000   -0.0000000000000 
 O    1.9434040846232    0.0000000000000    3.8868081972844 
 O    1.9434040846232    0.0000000000000    7.8053033444970 
 O    1.9434040846232    0.0000000000000   11.7146370711574 
 O    0.0000000000000    1.9434040846232    0.0000000000000 
 O    0.0000000000000    1.9434040846232    3.8868081972844 
 O    0.0000000000000    1.9434040846232    7.8053033444970 
 O    0.0000000000000    1.9434040846232   11.7146370711574 
 O    0.0000000000000    0.0000000000000    1.9434039459060 
 O    0.0000000000000    0.0000000000000    5.8302121431905 
 O    0.0000000000000    0.0000000000000    9.7953513873392 
 O    0.0000000000000    0.0000000000000   13.6041471453961 
 O    1.9434040846232    1.9434040846232   16.1647875583564 
21
FORCE:  0.058281  ...  ENERGY:  -126.64291997
Sr    1.9434040846232    1.9434040846232    1.9434039459060 
Sr    1.9434040846232    1.9434040846232    5.8302121431905 
Sr    1.9434040846232    1.9434040846232    9.7737422749435 
Sr    1.9434040846232    1.9434040846232   13.5881816342375 
Fe    0.0000000000000    0.0000000000000    0.0000000000000 
Fe    0.0000000000000    0.0000000000000    3.8868081972844 
Fe    0.0000000000000    0.0000000000000    7.8123710577215 
Fe    0.0000000000000    0.0000000000000   11.7462021376272 
 O    1.9434040846232    0.0000000000000   -0.0000000000000 
 O    1.9434040846232    0.0000000000000    3.8868081972844 
 O    1.9434040846232    0.0000000000000    7.8053036499693 
 O    1.9434040846232    0.0000000000000   11.7146370711574 
 O    0.0000000000000    1.9434040846232    0.0000000000000 
 O    0.0000000000000    1.9434040846232    3.8868081972844 
 O    0.0000000000000    1.9434040846232    7.8053036499693 
 O    0.0000000000000    1.9434040846232   11.7146370711574 
 O    0.0000000000000    0.0000000000000    1.9434039459060 
 O    0.0000000000000    0.0000000000000    5.8302121431905 
 O    0.0000000000000    0.0000000000000    9.7953513873392 
 O    0.0000000000000    0.0000000000000   13.6041471453961 
 O    1.9434040846232    1.9434040846232   16.1647869474117 
21
FORCE:  0.040973  ...  ENERGY:  -126.64288972
Sr    1.9434040846232    1.9434040846232    1.9434039459060 
Sr    1.9434040846232    1.9434040846232    5.8302121431905 
Sr    1.9434040846232    1.9434040846232    9.7737422749435 
Sr    1.9434040846232    1.9434040846232   13.5881816342375 
Fe    0.0000000000000    0.0000000000000    0.0000000000000 
Fe    0.0000000000000    0.0000000000000    3.8868081972844 
Fe    0.0000000000000    0.0000000000000    7.8123710577215 
Fe    0.0000000000000    0.0000000000000   11.7462021376272 
 O    1.9434040846232    0.0000000000000   -0.0000000000000 
 O    1.9434040846232    0.0000000000000    3.8868081972844 
 O    1.9434040846232    0.0000000000000    7.8053036499693 
 O    1.9434040846232    0.0000000000000   11.7146370711574 
 O    0.0000000000000    1.9434040846232    0.0000000000000 
 O    0.0000000000000    1.9434040846232    3.8868081972844 
 O    0.0000000000000    1.9434040846232    7.8053036499693 
 O    0.0000000000000    1.9434040846232   11.7146370711574 
 O    0.0000000000000    0.0000000000000    1.9434039459060 
 O    0.0000000000000    0.0000000000000    5.8302121431905 
 O    0.0000000000000    0.0000000000000    9.7953513873392 
 O    0.0000000000000    0.0000000000000   13.6041471453961 
 O    1.9434040846232    1.9434040846232   16.1647863364671 
