20
FORCE:  0.047260  ...  ENERGY:  -124.16074807
Sr    1.9434040846232    1.9434040846232    1.9434039459060 
Sr    1.9434040846232    1.9434040846232    5.8302121431905 
Sr    1.9434040846232    1.9434040846232    9.7288766378938 
Sr    1.9434040846232    1.9434040846232   13.4630720826133 
Fe    0.0000000000000    0.0000000000000    0.0000000000000 
Fe    0.0000000000000    0.0000000000000    3.8868081972844 
Fe    0.0000000000000    0.0000000000000    7.8065380636418 
Fe    0.0000000000000    0.0000000000000   11.7586571608066 
 O    1.9434040846232    0.0000000000000   -0.0000000000000 
 O    1.9434040846232    0.0000000000000    3.8868081972844 
 O    1.9434040846232    0.0000000000000    7.7964855803125 
 O    1.9434040846232    0.0000000000000   11.7419221648569 
 O    0.0000000000000    1.9434040846232    0.0000000000000 
 O    0.0000000000000    1.9434040846232    3.8868081972844 
 O    0.0000000000000    1.9434040846232    7.7964855803125 
 O    0.0000000000000    1.9434040846232   11.7419221648569 
 O    0.0000000000000    0.0000000000000    1.9434039459060 
 O    0.0000000000000    0.0000000000000    5.8302121431905 
 O    0.0000000000000    0.0000000000000    9.7816567574578 
 O    0.0000000000000    0.0000000000000   13.7050590121276 
20
FORCE:  0.035245  ...  ENERGY:  -124.16077811
Sr    1.9434040846232    1.9434040846232    1.9434039459060 
Sr    1.9434040846232    1.9434040846232    5.8302121431905 
Sr    1.9434040846232    1.9434040846232    9.7265965924468 
Sr    1.9434040846232    1.9434040846232   13.4612872078080 
Fe    0.0000000000000    0.0000000000000    0.0000000000000 
Fe    0.0000000000000    0.0000000000000    3.8868081972844 
Fe    0.0000000000000    0.0000000000000    7.8057108445809 
Fe    0.0000000000000    0.0000000000000   11.7575534892900 
 O    1.9434040846232    0.0000000000000   -0.0000000000000 
 O    1.9434040846232    0.0000000000000    3.8868081972844 
 O    1.9434040846232    0.0000000000000    7.7968946077580 
 O    1.9434040846232    0.0000000000000   11.7418665688934 
 O    0.0000000000000    1.9434040846232    0.0000000000000 
 O    0.0000000000000    1.9434040846232    3.8868081972844 
 O    0.0000000000000    1.9434040846232    7.7968946077580 
 O    0.0000000000000    1.9434040846232   11.7418665688934 
 O    0.0000000000000    0.0000000000000    1.9434039459060 
 O    0.0000000000000    0.0000000000000    5.8302121431905 
 O    0.0000000000000    0.0000000000000    9.7828975860491 
 O    0.0000000000000    0.0000000000000   13.7068698520807 
20
FORCE:  0.021564  ...  ENERGY:  -124.16089612
Sr    1.9434040846232    1.9434040846232    1.9434039459060 
Sr    1.9434040846232    1.9434040846232    5.8302121431905 
Sr    1.9434040846232    1.9434040846232    9.7274787965265 
Sr    1.9434040846232    1.9434040846232   13.4619778807388 
Fe    0.0000000000000    0.0000000000000    0.0000000000000 
Fe    0.0000000000000    0.0000000000000    3.8868081972844 
Fe    0.0000000000000    0.0000000000000    7.8060309795794 
Fe    0.0000000000000    0.0000000000000   11.7579805396028 
 O    1.9434040846232    0.0000000000000   -0.0000000000000 
 O    1.9434040846232    0.0000000000000    3.8868081972844 
 O    1.9434040846232    0.0000000000000    7.7967363730928 
 O    1.9434040846232    0.0000000000000   11.7418882574286 
 O    0.0000000000000    1.9434040846232    0.0000000000000 
 O    0.0000000000000    1.9434040846232    3.8868081972844 
 O    0.0000000000000    1.9434040846232    7.7967363730928 
 O    0.0000000000000    1.9434040846232   11.7418882574286 
 O    0.0000000000000    0.0000000000000    1.9434039459060 
 O    0.0000000000000    0.0000000000000    5.8302121431905 
 O    0.0000000000000    0.0000000000000    9.7824173835514 
 O    0.0000000000000    0.0000000000000   13.7061690985631 
20
FORCE:  0.011282  ...  ENERGY:  -124.16091571
Sr    1.9434040846232    1.9434040846232    1.9434039459060 
Sr    1.9434040846232    1.9434040846232    5.8302121431905 
Sr    1.9434040846232    1.9434040846232    9.7278786598023 
Sr    1.9434040846232    1.9434040846232   13.4622909898738 
Fe    0.0000000000000    0.0000000000000    0.0000000000000 
Fe    0.0000000000000    0.0000000000000    3.8868081972844 
Fe    0.0000000000000    0.0000000000000    7.8061760789346 
Fe    0.0000000000000    0.0000000000000   11.7581739035857 
 O    1.9434040846232    0.0000000000000   -0.0000000000000 
 O    1.9434040846232    0.0000000000000    3.8868081972844 
 O    1.9434040846232    0.0000000000000    7.7966645870960 
 O    1.9434040846232    0.0000000000000   11.7418980325430 
 O    0.0000000000000    1.9434040846232    0.0000000000000 
 O    0.0000000000000    1.9434040846232    3.8868081972844 
 O    0.0000000000000    1.9434040846232    7.7966645870960 
 O    0.0000000000000    1.9434040846232   11.7418980325430 
 O    0.0000000000000    0.0000000000000    1.9434039459060 
 O    0.0000000000000    0.0000000000000    5.8302121431905 
 O    0.0000000000000    0.0000000000000    9.7821998872548 
 O    0.0000000000000    0.0000000000000   13.7058514073432 
20
FORCE:  0.010928  ...  ENERGY:  -124.16091902
Sr    1.9434040846232    1.9434040846232    1.9434039459060 
Sr    1.9434040846232    1.9434040846232    5.8302121431905 
Sr    1.9434040846232    1.9434040846232    9.7281068476304 
Sr    1.9434040846232    1.9434040846232   13.4624693857126 
Fe    0.0000000000000    0.0000000000000    0.0000000000000 
Fe    0.0000000000000    0.0000000000000    3.8868081972844 
Fe    0.0000000000000    0.0000000000000    7.8062588619352 
Fe    0.0000000000000    0.0000000000000   11.7582844845680 
 O    1.9434040846232    0.0000000000000   -0.0000000000000 
 O    1.9434040846232    0.0000000000000    3.8868081972844 
 O    1.9434040846232    0.0000000000000    7.7966236538042 
 O    1.9434040846232    0.0000000000000   11.7419035310449 
 O    0.0000000000000    1.9434040846232    0.0000000000000 
 O    0.0000000000000    1.9434040846232    3.8868081972844 
 O    0.0000000000000    1.9434040846232    7.7966236538042 
 O    0.0000000000000    1.9434040846232   11.7419035310449 
 O    0.0000000000000    0.0000000000000    1.9434039459060 
 O    0.0000000000000    0.0000000000000    5.8302121431905 
 O    0.0000000000000    0.0000000000000    9.7820755600178 
 O    0.0000000000000    0.0000000000000   13.7056702622535 
20
FORCE:  0.009451  ...  ENERGY:  -124.16094040
Sr    1.9434040846232    1.9434040846232    1.9434039459060 
Sr    1.9434040846232    1.9434040846232    5.8302121431905 
Sr    1.9434040846232    1.9434040846232    9.7284917427621 
Sr    1.9434040846232    1.9434040846232   13.4627705814268 
Fe    0.0000000000000    0.0000000000000    0.0000000000000 
Fe    0.0000000000000    0.0000000000000    3.8868081972844 
Fe    0.0000000000000    0.0000000000000    7.8063984627885 
Fe    0.0000000000000    0.0000000000000   11.7584708226873 
 O    1.9434040846232    0.0000000000000   -0.0000000000000 
 O    1.9434040846232    0.0000000000000    3.8868081972844 
 O    1.9434040846232    0.0000000000000    7.7965546170583 
 O    1.9434040846232    0.0000000000000   11.7419130006871 
 O    0.0000000000000    1.9434040846232    0.0000000000000 
 O    0.0000000000000    1.9434040846232    3.8868081972844 
 O    0.0000000000000    1.9434040846232    7.7965546170583 
 O    0.0000000000000    1.9434040846232   11.7419130006871 
 O    0.0000000000000    0.0000000000000    1.9434039459060 
 O    0.0000000000000    0.0000000000000    5.8302121431905 
 O    0.0000000000000    0.0000000000000    9.7818663114739 
 O    0.0000000000000    0.0000000000000   13.7053647899267 
