21
FORCE:  0.082904  ...  ENERGY:  -126.64075145
Sr    1.9434040846232    1.9434040846232    1.9434039459060 
Sr    1.9434040846232    1.9434040846232    5.8302121431905 
Sr    1.9434040846232    1.9434040846232    9.7731490476849 
Sr    1.9434040846232    1.9434040846232   13.5972535513979 
Fe    0.0000000000000    0.0000000000000    0.0000000000000 
Fe    0.0000000000000    0.0000000000000    3.8868081972844 
Fe    0.0000000000000    0.0000000000000    7.8109423636492 
Fe    0.0000000000000    0.0000000000000   11.7466997520475 
 O    1.9434040846232    0.0000000000000   -0.0000000000000 
 O    1.9434040846232    0.0000000000000    3.8868081972844 
 O    1.9434040846232    0.0000000000000    7.8067170704253 
 O    1.9434040846232    0.0000000000000   11.7170869592181 
 O    0.0000000000000    1.9434040846232    0.0000000000000 
 O    0.0000000000000    1.9434040846232    3.8868081972844 
 O    0.0000000000000    1.9434040846232    7.8067170704253 
 O    0.0000000000000    1.9434040846232   11.7170869592181 
 O    0.0000000000000    0.0000000000000    1.9434039459060 
 O    0.0000000000000    0.0000000000000    5.8302121431905 
 O    0.0000000000000    0.0000000000000    9.7958578604570 
 O    0.0000000000000    0.0000000000000   13.5990759992994 
 O    1.9434040846232    1.9434040846232   16.1432737533266 
21
FORCE:  0.039290  ...  ENERGY:  -126.64150893
Sr    1.9434040846232    1.9434040846232    1.9434039459060 
Sr    1.9434040846232    1.9434040846232    5.8302121431905 
Sr    1.9434040846232    1.9434040846232    9.7725936989948 
Sr    1.9434040846232    1.9434040846232   13.5932540022235 
Fe    0.0000000000000    0.0000000000000    0.0000000000000 
Fe    0.0000000000000    0.0000000000000    3.8868081972844 
Fe    0.0000000000000    0.0000000000000    7.8122204598644 
Fe    0.0000000000000    0.0000000000000   11.7470018641787 
 O    1.9434040846232    0.0000000000000   -0.0000000000000 
 O    1.9434040846232    0.0000000000000    3.8868081972844 
 O    1.9434040846232    0.0000000000000    7.8063471434376 
 O    1.9434040846232    0.0000000000000   11.7158274968149 
 O    0.0000000000000    1.9434040846232    0.0000000000000 
 O    0.0000000000000    1.9434040846232    3.8868081972844 
 O    0.0000000000000    1.9434040846232    7.8063471434376 
 O    0.0000000000000    1.9434040846232   11.7158274968149 
 O    0.0000000000000    0.0000000000000    1.9434039459060 
 O    0.0000000000000    0.0000000000000    5.8302121431905 
 O    0.0000000000000    0.0000000000000    9.7959941011147 
 O    0.0000000000000    0.0000000000000   13.6025785449982 
 O    1.9434040846232    1.9434040846232   16.1459927625072 
21
FORCE:  0.034750  ...  ENERGY:  -126.64177546
Sr    1.9434040846232    1.9434040846232    1.9434039459060 
Sr    1.9434040846232    1.9434040846232    5.8302121431905 
Sr    1.9434040846232    1.9434040846232    9.7721803949367 
Sr    1.9434040846232    1.9434040846232   13.5902762579822 
Fe    0.0000000000000    0.0000000000000    0.0000000000000 
Fe    0.0000000000000    0.0000000000000    3.8868081972844 
Fe    0.0000000000000    0.0000000000000    7.8131723116346 
Fe    0.0000000000000    0.0000000000000   11.7472269972835 
 O    1.9434040846232    0.0000000000000   -0.0000000000000 
 O    1.9434040846232    0.0000000000000    3.8868081972844 
 O    1.9434040846232    0.0000000000000    7.8060719128712 
 O    1.9434040846232    0.0000000000000   11.7148900022440 
 O    0.0000000000000    1.9434040846232    0.0000000000000 
 O    0.0000000000000    1.9434040846232    3.8868081972844 
 O    0.0000000000000    1.9434040846232    7.8060719128712 
 O    0.0000000000000    1.9434040846232   11.7148900022440 
 O    0.0000000000000    0.0000000000000    1.9434039459060 
 O    0.0000000000000    0.0000000000000    5.8302121431905 
 O    0.0000000000000    0.0000000000000    9.7960955179272 
 O    0.0000000000000    0.0000000000000   13.6051863622518 
 O    1.9434040846232    1.9434040846232   16.1480171276167 
21
FORCE:  0.078755  ...  ENERGY:  -126.64268862
Sr    1.9434040846232    1.9434040846232    1.9434039459060 
Sr    1.9434040846232    1.9434040846232    5.8302121431905 
Sr    1.9434040846232    1.9434040846232    9.7722720366347 
Sr    1.9434040846232    1.9434040846232   13.5909351617910 
Fe    0.0000000000000    0.0000000000000    0.0000000000000 
Fe    0.0000000000000    0.0000000000000    3.8868081972844 
Fe    0.0000000000000    0.0000000000000    7.8129618412015 
Fe    0.0000000000000    0.0000000000000   11.7471772052943 
 O    1.9434040846232    0.0000000000000   -0.0000000000000 
 O    1.9434040846232    0.0000000000000    3.8868081972844 
 O    1.9434040846232    0.0000000000000    7.8061330073365 
 O    1.9434040846232    0.0000000000000   11.7150974179539 
 O    0.0000000000000    1.9434040846232    0.0000000000000 
 O    0.0000000000000    1.9434040846232    3.8868081972844 
 O    0.0000000000000    1.9434040846232    7.8061330073365 
 O    0.0000000000000    1.9434040846232   11.7150974179539 
 O    0.0000000000000    0.0000000000000    1.9434039459060 
 O    0.0000000000000    0.0000000000000    5.8302121431905 
 O    0.0000000000000    0.0000000000000    9.7960729129750 
 O    0.0000000000000    0.0000000000000   13.6046096304989 
 O    1.9434040846232    1.9434040846232   16.1475689997133 
21
FORCE:  0.038918  ...  ENERGY:  -126.64264104
Sr    1.9434040846232    1.9434040846232    1.9434039459060 
Sr    1.9434040846232    1.9434040846232    5.8302121431905 
Sr    1.9434040846232    1.9434040846232    9.7721965849700 
Sr    1.9434040846232    1.9434040846232   13.5903920319940 
Fe    0.0000000000000    0.0000000000000    0.0000000000000 
Fe    0.0000000000000    0.0000000000000    3.8868081972844 
Fe    0.0000000000000    0.0000000000000    7.8131353494831 
Fe    0.0000000000000    0.0000000000000   11.7472181385861 
 O    1.9434040846232    0.0000000000000   -0.0000000000000 
 O    1.9434040846232    0.0000000000000    3.8868081972844 
 O    1.9434040846232    0.0000000000000    7.8060826044026 
 O    1.9434040846232    0.0000000000000   11.7149263534509 
 O    0.0000000000000    1.9434040846232    0.0000000000000 
 O    0.0000000000000    1.9434040846232    3.8868081972844 
 O    0.0000000000000    1.9434040846232    7.8060826044026 
 O    0.0000000000000    1.9434040846232   11.7149263534509 
 O    0.0000000000000    0.0000000000000    1.9434039459060 
 O    0.0000000000000    0.0000000000000    5.8302121431905 
 O    0.0000000000000    0.0000000000000    9.7960915467870 
 O    0.0000000000000    0.0000000000000   13.6050849454393 
 O    1.9434040846232    1.9434040846232   16.1479383157564 
21
FORCE:  0.121896  ...  ENERGY:  -126.64353637
Sr    1.9434040846232    1.9434040846232    1.9434039459060 
Sr    1.9434040846232    1.9434040846232    5.8302121431905 
Sr    1.9434040846232    1.9434040846232    9.7721865043832 
Sr    1.9434040846232    1.9434040846232   13.5903190241079 
Fe    0.0000000000000    0.0000000000000    0.0000000000000 
Fe    0.0000000000000    0.0000000000000    3.8868081972844 
Fe    0.0000000000000    0.0000000000000    7.8131585653799 
Fe    0.0000000000000    0.0000000000000   11.7472236370880 
 O    1.9434040846232    0.0000000000000   -0.0000000000000 
 O    1.9434040846232    0.0000000000000    3.8868081972844 
 O    1.9434040846232    0.0000000000000    7.8060758840114 
 O    1.9434040846232    0.0000000000000   11.7149034430264 
 O    0.0000000000000    1.9434040846232    0.0000000000000 
 O    0.0000000000000    1.9434040846232    3.8868081972844 
 O    0.0000000000000    1.9434040846232    7.8060758840114 
 O    0.0000000000000    1.9434040846232   11.7149034430264 
 O    0.0000000000000    0.0000000000000    1.9434039459060 
 O    0.0000000000000    0.0000000000000    5.8302121431905 
 O    0.0000000000000    0.0000000000000    9.7960939905656 
 O    0.0000000000000    0.0000000000000   13.6051487891556 
 O    1.9434040846232    1.9434040846232   16.1479878022733 
21
FORCE:  0.041002  ...  ENERGY:  -126.64284211
Sr    1.9434040846232    1.9434040846232    1.9434039459060 
Sr    1.9434040846232    1.9434040846232    5.8302121431905 
Sr    1.9434040846232    1.9434040846232    9.7721813113537 
Sr    1.9434040846232    1.9434040846232   13.5902817564841 
Fe    0.0000000000000    0.0000000000000    0.0000000000000 
Fe    0.0000000000000    0.0000000000000    3.8868081972844 
Fe    0.0000000000000    0.0000000000000    7.8131704788006 
Fe    0.0000000000000    0.0000000000000   11.7472263863389 
 O    1.9434040846232    0.0000000000000   -0.0000000000000 
 O    1.9434040846232    0.0000000000000    3.8868081972844 
 O    1.9434040846232    0.0000000000000    7.8060725238158 
 O    1.9434040846232    0.0000000000000   11.7148918350780 
 O    0.0000000000000    1.9434040846232    0.0000000000000 
 O    0.0000000000000    1.9434040846232    3.8868081972844 
 O    0.0000000000000    1.9434040846232    7.8060725238158 
 O    0.0000000000000    1.9434040846232   11.7148918350780 
 O    0.0000000000000    0.0000000000000    1.9434039459060 
 O    0.0000000000000    0.0000000000000    5.8302121431905 
 O    0.0000000000000    0.0000000000000    9.7960952124549 
 O    0.0000000000000    0.0000000000000   13.6051817801669 
 O    1.9434040846232    1.9434040846232   16.1480131564765 
21
FORCE:  0.089841  ...  ENERGY:  -126.64322039
Sr    1.9434040846232    1.9434040846232    1.9434039459060 
Sr    1.9434040846232    1.9434040846232    5.8302121431905 
Sr    1.9434040846232    1.9434040846232    9.7721807004090 
Sr    1.9434040846232    1.9434040846232   13.5902783962885 
Fe    0.0000000000000    0.0000000000000    0.0000000000000 
Fe    0.0000000000000    0.0000000000000    3.8868081972844 
Fe    0.0000000000000    0.0000000000000    7.8131717006900 
Fe    0.0000000000000    0.0000000000000   11.7472266918112 
 O    1.9434040846232    0.0000000000000   -0.0000000000000 
 O    1.9434040846232    0.0000000000000    3.8868081972844 
 O    1.9434040846232    0.0000000000000    7.8060722183435 
 O    1.9434040846232    0.0000000000000   11.7148906131887 
 O    0.0000000000000    1.9434040846232    0.0000000000000 
 O    0.0000000000000    1.9434040846232    3.8868081972844 
 O    0.0000000000000    1.9434040846232    7.8060722183435 
 O    0.0000000000000    1.9434040846232   11.7148906131887 
 O    0.0000000000000    0.0000000000000    1.9434039459060 
 O    0.0000000000000    0.0000000000000    5.8302121431905 
 O    0.0000000000000    0.0000000000000    9.7960952124549 
 O    0.0000000000000    0.0000000000000   13.6051848348902 
 O    1.9434040846232    1.9434040846232   16.1480156002551 
21
FORCE:  0.039320  ...  ENERGY:  -126.64286525
Sr    1.9434040846232    1.9434040846232    1.9434039459060 
Sr    1.9434040846232    1.9434040846232    5.8302121431905 
Sr    1.9434040846232    1.9434040846232    9.7721807004090 
Sr    1.9434040846232    1.9434040846232   13.5902765634545 
Fe    0.0000000000000    0.0000000000000    0.0000000000000 
Fe    0.0000000000000    0.0000000000000    3.8868081972844 
Fe    0.0000000000000    0.0000000000000    7.8131723116346 
Fe    0.0000000000000    0.0000000000000   11.7472269972835 
 O    1.9434040846232    0.0000000000000   -0.0000000000000 
 O    1.9434040846232    0.0000000000000    3.8868081972844 
 O    1.9434040846232    0.0000000000000    7.8060719128712 
 O    1.9434040846232    0.0000000000000   11.7148900022440 
 O    0.0000000000000    1.9434040846232    0.0000000000000 
 O    0.0000000000000    1.9434040846232    3.8868081972844 
 O    0.0000000000000    1.9434040846232    7.8060719128712 
 O    0.0000000000000    1.9434040846232   11.7148900022440 
 O    0.0000000000000    0.0000000000000    1.9434039459060 
 O    0.0000000000000    0.0000000000000    5.8302121431905 
 O    0.0000000000000    0.0000000000000    9.7960955179272 
 O    0.0000000000000    0.0000000000000   13.6051860567795 
 O    1.9434040846232    1.9434040846232   16.1480168221444 
21
FORCE:  0.062105  ...  ENERGY:  -126.64306344
Sr    1.9434040846232    1.9434040846232    1.9434039459060 
Sr    1.9434040846232    1.9434040846232    5.8302121431905 
Sr    1.9434040846232    1.9434040846232    9.7721803949367 
Sr    1.9434040846232    1.9434040846232   13.5902765634545 
Fe    0.0000000000000    0.0000000000000    0.0000000000000 
Fe    0.0000000000000    0.0000000000000    3.8868081972844 
Fe    0.0000000000000    0.0000000000000    7.8131723116346 
Fe    0.0000000000000    0.0000000000000   11.7472269972835 
 O    1.9434040846232    0.0000000000000   -0.0000000000000 
 O    1.9434040846232    0.0000000000000    3.8868081972844 
 O    1.9434040846232    0.0000000000000    7.8060719128712 
 O    1.9434040846232    0.0000000000000   11.7148900022440 
 O    0.0000000000000    1.9434040846232    0.0000000000000 
 O    0.0000000000000    1.9434040846232    3.8868081972844 
 O    0.0000000000000    1.9434040846232    7.8060719128712 
 O    0.0000000000000    1.9434040846232   11.7148900022440 
 O    0.0000000000000    0.0000000000000    1.9434039459060 
 O    0.0000000000000    0.0000000000000    5.8302121431905 
 O    0.0000000000000    0.0000000000000    9.7960955179272 
 O    0.0000000000000    0.0000000000000   13.6051863622518 
 O    1.9434040846232    1.9434040846232   16.1480168221444 
21
FORCE:  0.045021  ...  ENERGY:  -126.64294789
Sr    1.9434040846232    1.9434040846232    1.9434039459060 
Sr    1.9434040846232    1.9434040846232    5.8302121431905 
Sr    1.9434040846232    1.9434040846232    9.7721803949367 
Sr    1.9434040846232    1.9434040846232   13.5902762579822 
Fe    0.0000000000000    0.0000000000000    0.0000000000000 
Fe    0.0000000000000    0.0000000000000    3.8868081972844 
Fe    0.0000000000000    0.0000000000000    7.8131723116346 
Fe    0.0000000000000    0.0000000000000   11.7472269972835 
 O    1.9434040846232    0.0000000000000   -0.0000000000000 
 O    1.9434040846232    0.0000000000000    3.8868081972844 
 O    1.9434040846232    0.0000000000000    7.8060719128712 
 O    1.9434040846232    0.0000000000000   11.7148900022440 
 O    0.0000000000000    1.9434040846232    0.0000000000000 
 O    0.0000000000000    1.9434040846232    3.8868081972844 
 O    0.0000000000000    1.9434040846232    7.8060719128712 
 O    0.0000000000000    1.9434040846232   11.7148900022440 
 O    0.0000000000000    0.0000000000000    1.9434039459060 
 O    0.0000000000000    0.0000000000000    5.8302121431905 
 O    0.0000000000000    0.0000000000000    9.7960955179272 
 O    0.0000000000000    0.0000000000000   13.6051863622518 
 O    1.9434040846232    1.9434040846232   16.1480168221444 
21
FORCE:  0.046472  ...  ENERGY:  -126.64294162
Sr    1.9434040846232    1.9434040846232    1.9434039459060 
Sr    1.9434040846232    1.9434040846232    5.8302121431905 
Sr    1.9434040846232    1.9434040846232    9.7721803949367 
Sr    1.9434040846232    1.9434040846232   13.5902762579822 
Fe    0.0000000000000    0.0000000000000    0.0000000000000 
Fe    0.0000000000000    0.0000000000000    3.8868081972844 
Fe    0.0000000000000    0.0000000000000    7.8131723116346 
Fe    0.0000000000000    0.0000000000000   11.7472269972835 
 O    1.9434040846232    0.0000000000000   -0.0000000000000 
 O    1.9434040846232    0.0000000000000    3.8868081972844 
 O    1.9434040846232    0.0000000000000    7.8060719128712 
 O    1.9434040846232    0.0000000000000   11.7148900022440 
 O    0.0000000000000    1.9434040846232    0.0000000000000 
 O    0.0000000000000    1.9434040846232    3.8868081972844 
 O    0.0000000000000    1.9434040846232    7.8060719128712 
 O    0.0000000000000    1.9434040846232   11.7148900022440 
 O    0.0000000000000    0.0000000000000    1.9434039459060 
 O    0.0000000000000    0.0000000000000    5.8302121431905 
 O    0.0000000000000    0.0000000000000    9.7960955179272 
 O    0.0000000000000    0.0000000000000   13.6051863622518 
 O    1.9434040846232    1.9434040846232   16.1480171276167 
21
FORCE:  0.034195  ...  ENERGY:  -126.64287677
Sr    1.9434040846232    1.9434040846232    1.9434039459060 
Sr    1.9434040846232    1.9434040846232    5.8302121431905 
Sr    1.9434040846232    1.9434040846232    9.7721803949367 
Sr    1.9434040846232    1.9434040846232   13.5902762579822 
Fe    0.0000000000000    0.0000000000000    0.0000000000000 
Fe    0.0000000000000    0.0000000000000    3.8868081972844 
Fe    0.0000000000000    0.0000000000000    7.8131723116346 
Fe    0.0000000000000    0.0000000000000   11.7472269972835 
 O    1.9434040846232    0.0000000000000   -0.0000000000000 
 O    1.9434040846232    0.0000000000000    3.8868081972844 
 O    1.9434040846232    0.0000000000000    7.8060719128712 
 O    1.9434040846232    0.0000000000000   11.7148900022440 
 O    0.0000000000000    1.9434040846232    0.0000000000000 
 O    0.0000000000000    1.9434040846232    3.8868081972844 
 O    0.0000000000000    1.9434040846232    7.8060719128712 
 O    0.0000000000000    1.9434040846232   11.7148900022440 
 O    0.0000000000000    0.0000000000000    1.9434039459060 
 O    0.0000000000000    0.0000000000000    5.8302121431905 
 O    0.0000000000000    0.0000000000000    9.7960955179272 
 O    0.0000000000000    0.0000000000000   13.6051863622518 
 O    1.9434040846232    1.9434040846232   16.1480171276167 
21
FORCE:  0.038819  ...  ENERGY:  -126.64283904
Sr    1.9434040846232    1.9434040846232    1.9434039459060 
Sr    1.9434040846232    1.9434040846232    5.8302121431905 
Sr    1.9434040846232    1.9434040846232    9.7721803949367 
Sr    1.9434040846232    1.9434040846232   13.5902762579822 
Fe    0.0000000000000    0.0000000000000    0.0000000000000 
Fe    0.0000000000000    0.0000000000000    3.8868081972844 
Fe    0.0000000000000    0.0000000000000    7.8131723116346 
Fe    0.0000000000000    0.0000000000000   11.7472269972835 
 O    1.9434040846232    0.0000000000000   -0.0000000000000 
 O    1.9434040846232    0.0000000000000    3.8868081972844 
 O    1.9434040846232    0.0000000000000    7.8060719128712 
 O    1.9434040846232    0.0000000000000   11.7148900022440 
 O    0.0000000000000    1.9434040846232    0.0000000000000 
 O    0.0000000000000    1.9434040846232    3.8868081972844 
 O    0.0000000000000    1.9434040846232    7.8060719128712 
 O    0.0000000000000    1.9434040846232   11.7148900022440 
 O    0.0000000000000    0.0000000000000    1.9434039459060 
 O    0.0000000000000    0.0000000000000    5.8302121431905 
 O    0.0000000000000    0.0000000000000    9.7960955179272 
 O    0.0000000000000    0.0000000000000   13.6051863622518 
 O    1.9434040846232    1.9434040846232   16.1480171276167 
21
FORCE:  0.039530  ...  ENERGY:  -126.64295059
Sr    1.9434040846232    1.9434040846232    1.9434039459060 
Sr    1.9434040846232    1.9434040846232    5.8302121431905 
Sr    1.9434040846232    1.9434040846232    9.7721803949367 
Sr    1.9434040846232    1.9434040846232   13.5902762579822 
Fe    0.0000000000000    0.0000000000000    0.0000000000000 
Fe    0.0000000000000    0.0000000000000    3.8868081972844 
Fe    0.0000000000000    0.0000000000000    7.8131723116346 
Fe    0.0000000000000    0.0000000000000   11.7472269972835 
 O    1.9434040846232    0.0000000000000   -0.0000000000000 
 O    1.9434040846232    0.0000000000000    3.8868081972844 
 O    1.9434040846232    0.0000000000000    7.8060719128712 
 O    1.9434040846232    0.0000000000000   11.7148900022440 
 O    0.0000000000000    1.9434040846232    0.0000000000000 
 O    0.0000000000000    1.9434040846232    3.8868081972844 
 O    0.0000000000000    1.9434040846232    7.8060719128712 
 O    0.0000000000000    1.9434040846232   11.7148900022440 
 O    0.0000000000000    0.0000000000000    1.9434039459060 
 O    0.0000000000000    0.0000000000000    5.8302121431905 
 O    0.0000000000000    0.0000000000000    9.7960955179272 
 O    0.0000000000000    0.0000000000000   13.6051863622518 
 O    1.9434040846232    1.9434040846232   16.1480171276167 
21
FORCE:  0.050230  ...  ENERGY:  -126.64299753
Sr    1.9434040846232    1.9434040846232    1.9434039459060 
Sr    1.9434040846232    1.9434040846232    5.8302121431905 
Sr    1.9434040846232    1.9434040846232    9.7721803949367 
Sr    1.9434040846232    1.9434040846232   13.5902762579822 
Fe    0.0000000000000    0.0000000000000    0.0000000000000 
Fe    0.0000000000000    0.0000000000000    3.8868081972844 
Fe    0.0000000000000    0.0000000000000    7.8131723116346 
Fe    0.0000000000000    0.0000000000000   11.7472269972835 
 O    1.9434040846232    0.0000000000000   -0.0000000000000 
 O    1.9434040846232    0.0000000000000    3.8868081972844 
 O    1.9434040846232    0.0000000000000    7.8060719128712 
 O    1.9434040846232    0.0000000000000   11.7148900022440 
 O    0.0000000000000    1.9434040846232    0.0000000000000 
 O    0.0000000000000    1.9434040846232    3.8868081972844 
 O    0.0000000000000    1.9434040846232    7.8060719128712 
 O    0.0000000000000    1.9434040846232   11.7148900022440 
 O    0.0000000000000    0.0000000000000    1.9434039459060 
 O    0.0000000000000    0.0000000000000    5.8302121431905 
 O    0.0000000000000    0.0000000000000    9.7960955179272 
 O    0.0000000000000    0.0000000000000   13.6051863622518 
 O    1.9434040846232    1.9434040846232   16.1480171276167 
