20
FORCE:  1.597373  ...  ENERGY:  -123.94834788
Sr    1.9434040846232    1.9434040846232    1.9434039459060 
Sr    1.9434040846232    1.9434040846232    5.8302121431905 
Sr    1.9434040846232    1.9434040846232    9.7170203404749 
Sr    1.9434040846232    1.9434040846232   13.6038285377593 
Fe    0.0000000000000    0.0000000000000    0.0000000000000 
Fe    0.0000000000000    0.0000000000000    3.8868081972844 
Fe    0.0000000000000    0.0000000000000    7.7736163945689 
Fe    0.0000000000000    0.0000000000000   11.6604245918533 
 O    1.9434040846232    0.0000000000000   -0.0000000000000 
 O    1.9434040846232    0.0000000000000    3.8868081972844 
 O    1.9434040846232    0.0000000000000    7.7736163945689 
 O    1.9434040846232    0.0000000000000   11.6604245918533 
 O    0.0000000000000    1.9434040846232    0.0000000000000 
 O    0.0000000000000    1.9434040846232    3.8868081972844 
 O    0.0000000000000    1.9434040846232    7.7736163945689 
 O    0.0000000000000    1.9434040846232   11.6604245918533 
 O    0.0000000000000    0.0000000000000    1.9434039459060 
 O    0.0000000000000    0.0000000000000    5.8302121431905 
 O    0.0000000000000    0.0000000000000    9.7170203404749 
 O    0.0000000000000    0.0000000000000   13.6038285377593 
20
FORCE:  0.887078  ...  ENERGY:  -124.08719050
Sr    1.9434040846232    1.9434040846232    1.9434039459060 
Sr    1.9434040846232    1.9434040846232    5.8302121431905 
Sr    1.9434040846232    1.9434040846232    9.7152388258652 
Sr    1.9434040846232    1.9434040846232   13.5267670338851 
Fe    0.0000000000000    0.0000000000000    0.0000000000000 
Fe    0.0000000000000    0.0000000000000    3.8868081972844 
Fe    0.0000000000000    0.0000000000000    7.7771259661311 
Fe    0.0000000000000    0.0000000000000   11.6748908448321 
 O    1.9434040846232    0.0000000000000   -0.0000000000000 
 O    1.9434040846232    0.0000000000000    3.8868081972844 
 O    1.9434040846232    0.0000000000000    7.7725835926320 
 O    1.9434040846232    0.0000000000000   11.6716390919137 
 O    0.0000000000000    1.9434040846232    0.0000000000000 
 O    0.0000000000000    1.9434040846232    3.8868081972844 
 O    0.0000000000000    1.9434040846232    7.7725835926320 
 O    0.0000000000000    1.9434040846232   11.6716390919137 
 O    0.0000000000000    0.0000000000000    1.9434039459060 
 O    0.0000000000000    0.0000000000000    5.8302121431905 
 O    0.0000000000000    0.0000000000000    9.7202635401682 
 O    0.0000000000000    0.0000000000000   13.6539681545307 
20
FORCE:  0.616732  ...  ENERGY:  -124.12924912
Sr    1.9434040846232    1.9434040846232    1.9434039459060 
Sr    1.9434040846232    1.9434040846232    5.8302121431905 
Sr    1.9434040846232    1.9434040846232    9.7134670863699 
Sr    1.9434040846232    1.9434040846232   13.4501490758293 
Fe    0.0000000000000    0.0000000000000    0.0000000000000 
Fe    0.0000000000000    0.0000000000000    3.8868081972844 
Fe    0.0000000000000    0.0000000000000    7.7806156819921 
Fe    0.0000000000000    0.0000000000000   11.6892743148104 
 O    1.9434040846232    0.0000000000000   -0.0000000000000 
 O    1.9434040846232    0.0000000000000    3.8868081972844 
 O    1.9434040846232    0.0000000000000    7.7715569001418 
 O    1.9434040846232    0.0000000000000   11.6827891373131 
 O    0.0000000000000    1.9434040846232    0.0000000000000 
 O    0.0000000000000    1.9434040846232    3.8868081972844 
 O    0.0000000000000    1.9434040846232    7.7715569001418 
 O    0.0000000000000    1.9434040846232   11.6827891373131 
 O    0.0000000000000    0.0000000000000    1.9434039459060 
 O    0.0000000000000    0.0000000000000    5.8302121431905 
 O    0.0000000000000    0.0000000000000    9.7234878005773 
 O    0.0000000000000    0.0000000000000   13.7038190999532 
20
FORCE:  0.202264  ...  ENERGY:  -124.14709439
Sr    1.9434040846232    1.9434040846232    1.9434039459060 
Sr    1.9434040846232    1.9434040846232    5.8302121431905 
Sr    1.9434040846232    1.9434040846232    9.7050366610957 
Sr    1.9434040846232    1.9434040846232   13.4273706153668 
Fe    0.0000000000000    0.0000000000000    0.0000000000000 
Fe    0.0000000000000    0.0000000000000    3.8868081972844 
Fe    0.0000000000000    0.0000000000000    7.7813332364877 
Fe    0.0000000000000    0.0000000000000   11.7281624693698 
 O    1.9434040846232    0.0000000000000   -0.0000000000000 
 O    1.9434040846232    0.0000000000000    3.8868081972844 
 O    1.9434040846232    0.0000000000000    7.7722133601720 
 O    1.9434040846232    0.0000000000000   11.6895400757347 
 O    0.0000000000000    1.9434040846232    0.0000000000000 
 O    0.0000000000000    1.9434040846232    3.8868081972844 
 O    0.0000000000000    1.9434040846232    7.7722133601720 
 O    0.0000000000000    1.9434040846232   11.6895400757347 
 O    0.0000000000000    0.0000000000000    1.9434039459060 
 O    0.0000000000000    0.0000000000000    5.8302121431905 
 O    0.0000000000000    0.0000000000000    9.7311826484886 
 O    0.0000000000000    0.0000000000000   13.6890965556922 
20
FORCE:  0.275991  ...  ENERGY:  -124.14655017
Sr    1.9434040846232    1.9434040846232    1.9434039459060 
Sr    1.9434040846232    1.9434040846232    5.8302121431905 
Sr    1.9434040846232    1.9434040846232    9.7022018779033 
Sr    1.9434040846232    1.9434040846232   13.4197112022453 
Fe    0.0000000000000    0.0000000000000    0.0000000000000 
Fe    0.0000000000000    0.0000000000000    3.8868081972844 
Fe    0.0000000000000    0.0000000000000    7.7815748650982 
Fe    0.0000000000000    0.0000000000000   11.7412385177895 
 O    1.9434040846232    0.0000000000000   -0.0000000000000 
 O    1.9434040846232    0.0000000000000    3.8868081972844 
 O    1.9434040846232    0.0000000000000    7.7724342166643 
 O    1.9434040846232    0.0000000000000   11.6918100405949 
 O    0.0000000000000    1.9434040846232    0.0000000000000 
 O    0.0000000000000    1.9434040846232    3.8868081972844 
 O    0.0000000000000    1.9434040846232    7.7724342166643 
 O    0.0000000000000    1.9434040846232   11.6918100405949 
 O    0.0000000000000    0.0000000000000    1.9434039459060 
 O    0.0000000000000    0.0000000000000    5.8302121431905 
 O    0.0000000000000    0.0000000000000    9.7337699990963 
 O    0.0000000000000    0.0000000000000   13.6841460711646 
20
FORCE:  0.169410  ...  ENERGY:  -124.15165278
Sr    1.9434040846232    1.9434040846232    1.9434039459060 
Sr    1.9434040846232    1.9434040846232    5.8302121431905 
Sr    1.9434040846232    1.9434040846232    9.7040307407237 
Sr    1.9434040846232    1.9434040846232   13.4246525226032 
Fe    0.0000000000000    0.0000000000000    0.0000000000000 
Fe    0.0000000000000    0.0000000000000    3.8868081972844 
Fe    0.0000000000000    0.0000000000000    7.7814190742115 
Fe    0.0000000000000    0.0000000000000   11.7328028994858 
 O    1.9434040846232    0.0000000000000   -0.0000000000000 
 O    1.9434040846232    0.0000000000000    3.8868081972844 
 O    1.9434040846232    0.0000000000000    7.7722918665600 
 O    1.9434040846232    0.0000000000000   11.6903456062604 
 O    0.0000000000000    1.9434040846232    0.0000000000000 
 O    0.0000000000000    1.9434040846232    3.8868081972844 
 O    0.0000000000000    1.9434040846232    7.7722918665600 
 O    0.0000000000000    1.9434040846232   11.6903456062604 
 O    0.0000000000000    0.0000000000000    1.9434039459060 
 O    0.0000000000000    0.0000000000000    5.8302121431905 
 O    0.0000000000000    0.0000000000000    9.7321005928305 
 O    0.0000000000000    0.0000000000000   13.6873397843410 
20
FORCE:  0.108554  ...  ENERGY:  -124.15599023
Sr    1.9434040846232    1.9434040846232    1.9434039459060 
Sr    1.9434040846232    1.9434040846232    5.8302121431905 
Sr    1.9434040846232    1.9434040846232    9.6998579887400 
Sr    1.9434040846232    1.9434040846232   13.4258053751644 
Fe    0.0000000000000    0.0000000000000    0.0000000000000 
Fe    0.0000000000000    0.0000000000000    3.8868081972844 
Fe    0.0000000000000    0.0000000000000    7.7884733466536 
Fe    0.0000000000000    0.0000000000000   11.7303343776132 
 O    1.9434040846232    0.0000000000000   -0.0000000000000 
 O    1.9434040846232    0.0000000000000    3.8868081972844 
 O    1.9434040846232    0.0000000000000    7.7729562688707 
 O    1.9434040846232    0.0000000000000   11.6976170695268 
 O    0.0000000000000    1.9434040846232    0.0000000000000 
 O    0.0000000000000    1.9434040846232    3.8868081972844 
 O    0.0000000000000    1.9434040846232    7.7729562688707 
 O    0.0000000000000    1.9434040846232   11.6976170695268 
 O    0.0000000000000    0.0000000000000    1.9434039459060 
 O    0.0000000000000    0.0000000000000    5.8302121431905 
 O    0.0000000000000    0.0000000000000    9.7421225289272 
 O    0.0000000000000    0.0000000000000   13.6754645476378 
20
FORCE:  0.101099  ...  ENERGY:  -124.15638220
Sr    1.9434040846232    1.9434040846232    1.9434039459060 
Sr    1.9434040846232    1.9434040846232    5.8302121431905 
Sr    1.9434040846232    1.9434040846232    9.6954625474301 
Sr    1.9434040846232    1.9434040846232   13.4270196276633 
Fe    0.0000000000000    0.0000000000000    0.0000000000000 
Fe    0.0000000000000    0.0000000000000    3.8868081972844 
Fe    0.0000000000000    0.0000000000000    7.7959039610023 
Fe    0.0000000000000    0.0000000000000   11.7277341971677 
 O    1.9434040846232    0.0000000000000   -0.0000000000000 
 O    1.9434040846232    0.0000000000000    3.8868081972844 
 O    1.9434040846232    0.0000000000000    7.7736564114437 
 O    1.9434040846232    0.0000000000000   11.7052767881206 
 O    0.0000000000000    1.9434040846232    0.0000000000000 
 O    0.0000000000000    1.9434040846232    3.8868081972844 
 O    0.0000000000000    1.9434040846232    7.7736564114437 
 O    0.0000000000000    1.9434040846232   11.7052767881206 
 O    0.0000000000000    0.0000000000000    1.9434039459060 
 O    0.0000000000000    0.0000000000000    5.8302121431905 
 O    0.0000000000000    0.0000000000000    9.7526793470681 
 O    0.0000000000000    0.0000000000000   13.6629557613289 
20
FORCE:  0.070688  ...  ENERGY:  -124.15680133
Sr    1.9434040846232    1.9434040846232    1.9434039459060 
Sr    1.9434040846232    1.9434040846232    5.8302121431905 
Sr    1.9434040846232    1.9434040846232    9.6965515562750 
Sr    1.9434040846232    1.9434040846232   13.4267187374214 
Fe    0.0000000000000    0.0000000000000    0.0000000000000 
Fe    0.0000000000000    0.0000000000000    3.8868081972844 
Fe    0.0000000000000    0.0000000000000    7.7940631847612 
Fe    0.0000000000000    0.0000000000000   11.7283784383049 
 O    1.9434040846232    0.0000000000000   -0.0000000000000 
 O    1.9434040846232    0.0000000000000    3.8868081972844 
 O    1.9434040846232    0.0000000000000    7.7734829031621 
 O    1.9434040846232    0.0000000000000   11.7033788885543 
 O    0.0000000000000    1.9434040846232    0.0000000000000 
 O    0.0000000000000    1.9434040846232    3.8868081972844 
 O    0.0000000000000    1.9434040846232    7.7734829031621 
 O    0.0000000000000    1.9434040846232   11.7033788885543 
 O    0.0000000000000    0.0000000000000    1.9434039459060 
 O    0.0000000000000    0.0000000000000    5.8302121431905 
 O    0.0000000000000    0.0000000000000    9.7500638930062 
 O    0.0000000000000    0.0000000000000   13.6660547780840 
20
FORCE:  0.068789  ...  ENERGY:  -124.15718621
Sr    1.9434040846232    1.9434040846232    1.9434039459060 
Sr    1.9434040846232    1.9434040846232    5.8302121431905 
Sr    1.9434040846232    1.9434040846232    9.6970613895884 
Sr    1.9434040846232    1.9434040846232   13.4265779146788 
Fe    0.0000000000000    0.0000000000000    0.0000000000000 
Fe    0.0000000000000    0.0000000000000    3.8868081972844 
Fe    0.0000000000000    0.0000000000000    7.7932014473274 
Fe    0.0000000000000    0.0000000000000   11.7286799394914 
 O    1.9434040846232    0.0000000000000   -0.0000000000000 
 O    1.9434040846232    0.0000000000000    3.8868081972844 
 O    1.9434040846232    0.0000000000000    7.7734016475231 
 O    1.9434040846232    0.0000000000000   11.7024908805004 
 O    0.0000000000000    1.9434040846232    0.0000000000000 
 O    0.0000000000000    1.9434040846232    3.8868081972844 
 O    0.0000000000000    1.9434040846232    7.7734016475231 
 O    0.0000000000000    1.9434040846232   11.7024908805004 
 O    0.0000000000000    0.0000000000000    1.9434039459060 
 O    0.0000000000000    0.0000000000000    5.8302121431905 
 O    0.0000000000000    0.0000000000000    9.7488395599206 
 O    0.0000000000000    0.0000000000000   13.6675054661638 
20
FORCE:  0.058949  ...  ENERGY:  -124.15790073
Sr    1.9434040846232    1.9434040846232    1.9434039459060 
Sr    1.9434040846232    1.9434040846232    5.8302121431905 
Sr    1.9434040846232    1.9434040846232    9.6981036611673 
Sr    1.9434040846232    1.9434040846232   13.4266564210668 
Fe    0.0000000000000    0.0000000000000    0.0000000000000 
Fe    0.0000000000000    0.0000000000000    3.8868081972844 
Fe    0.0000000000000    0.0000000000000    7.7908367860458 
Fe    0.0000000000000    0.0000000000000   11.7236237615387 
 O    1.9434040846232    0.0000000000000   -0.0000000000000 
 O    1.9434040846232    0.0000000000000    3.8868081972844 
 O    1.9434040846232    0.0000000000000    7.7773086385825 
 O    1.9434040846232    0.0000000000000   11.7064131451762 
 O    0.0000000000000    1.9434040846232    0.0000000000000 
 O    0.0000000000000    1.9434040846232    3.8868081972844 
 O    0.0000000000000    1.9434040846232    7.7773086385825 
 O    0.0000000000000    1.9434040846232   11.7064131451762 
 O    0.0000000000000    0.0000000000000    1.9434039459060 
 O    0.0000000000000    0.0000000000000    5.8302121431905 
 O    0.0000000000000    0.0000000000000    9.7533464986297 
 O    0.0000000000000    0.0000000000000   13.6696306371411 
20
FORCE:  0.104371  ...  ENERGY:  -124.15767793
Sr    1.9434040846232    1.9434040846232    1.9434039459060 
Sr    1.9434040846232    1.9434040846232    5.8302121431905 
Sr    1.9434040846232    1.9434040846232    9.6982942758993 
Sr    1.9434040846232    1.9434040846232   13.4266707782661 
Fe    0.0000000000000    0.0000000000000    0.0000000000000 
Fe    0.0000000000000    0.0000000000000    3.8868081972844 
Fe    0.0000000000000    0.0000000000000    7.7904045427035 
Fe    0.0000000000000    0.0000000000000   11.7226997077502 
 O    1.9434040846232    0.0000000000000   -0.0000000000000 
 O    1.9434040846232    0.0000000000000    3.8868081972844 
 O    1.9434040846232    0.0000000000000    7.7780228328825 
 O    1.9434040846232    0.0000000000000   11.7071300887271 
 O    0.0000000000000    1.9434040846232    0.0000000000000 
 O    0.0000000000000    1.9434040846232    3.8868081972844 
 O    0.0000000000000    1.9434040846232    7.7780228328825 
 O    0.0000000000000    1.9434040846232   11.7071300887271 
 O    0.0000000000000    0.0000000000000    1.9434039459060 
 O    0.0000000000000    0.0000000000000    5.8302121431905 
 O    0.0000000000000    0.0000000000000    9.7541703574950 
 O    0.0000000000000    0.0000000000000   13.6700188924685 
20
FORCE:  0.081461  ...  ENERGY:  -124.15822401
Sr    1.9434040846232    1.9434040846232    1.9434039459060 
Sr    1.9434040846232    1.9434040846232    5.8302121431905 
Sr    1.9434040846232    1.9434040846232    9.6997917012451 
Sr    1.9434040846232    1.9434040846232   13.4276562319923 
Fe    0.0000000000000    0.0000000000000    0.0000000000000 
Fe    0.0000000000000    0.0000000000000    3.8868081972844 
Fe    0.0000000000000    0.0000000000000    7.7887986746816 
Fe    0.0000000000000    0.0000000000000   11.7258115543430 
 O    1.9434040846232    0.0000000000000   -0.0000000000000 
 O    1.9434040846232    0.0000000000000    3.8868081972844 
 O    1.9434040846232    0.0000000000000    7.7840311680777 
 O    1.9434040846232    0.0000000000000   11.7109738470148 
 O    0.0000000000000    1.9434040846232    0.0000000000000 
 O    0.0000000000000    1.9434040846232    3.8868081972844 
 O    0.0000000000000    1.9434040846232    7.7840311680777 
 O    0.0000000000000    1.9434040846232   11.7109738470148 
 O    0.0000000000000    0.0000000000000    1.9434039459060 
 O    0.0000000000000    0.0000000000000    5.8302121431905 
 O    0.0000000000000    0.0000000000000    9.7567256335084 
 O    0.0000000000000    0.0000000000000   13.6709099552457 
20
FORCE:  0.107470  ...  ENERGY:  -124.15839107
Sr    1.9434040846232    1.9434040846232    1.9434039459060 
Sr    1.9434040846232    1.9434040846232    5.8302121431905 
Sr    1.9434040846232    1.9434040846232    9.7002932868056 
Sr    1.9434040846232    1.9434040846232   13.4279864475775 
Fe    0.0000000000000    0.0000000000000    0.0000000000000 
Fe    0.0000000000000    0.0000000000000    3.8868081972844 
Fe    0.0000000000000    0.0000000000000    7.7882607379142 
Fe    0.0000000000000    0.0000000000000   11.7268538259220 
 O    1.9434040846232    0.0000000000000   -0.0000000000000 
 O    1.9434040846232    0.0000000000000    3.8868081972844 
 O    1.9434040846232    0.0000000000000    7.7860439252388 
 O    1.9434040846232    0.0000000000000   11.7122611073998 
 O    0.0000000000000    1.9434040846232    0.0000000000000 
 O    0.0000000000000    1.9434040846232    3.8868081972844 
 O    0.0000000000000    1.9434040846232    7.7860439252388 
 O    0.0000000000000    1.9434040846232   11.7122611073998 
 O    0.0000000000000    0.0000000000000    1.9434039459060 
 O    0.0000000000000    0.0000000000000    5.8302121431905 
 O    0.0000000000000    0.0000000000000    9.7575815669681 
 O    0.0000000000000    0.0000000000000   13.6712084017089 
20
FORCE:  0.054073  ...  ENERGY:  -124.15941216
Sr    1.9434040846232    1.9434040846232    1.9434039459060 
Sr    1.9434040846232    1.9434040846232    5.8302121431905 
Sr    1.9434040846232    1.9434040846232    9.7024163194767 
Sr    1.9434040846232    1.9434040846232   13.4310787439414 
Fe    0.0000000000000    0.0000000000000    0.0000000000000 
Fe    0.0000000000000    0.0000000000000    3.8868081972844 
Fe    0.0000000000000    0.0000000000000    7.7949337808925 
Fe    0.0000000000000    0.0000000000000   11.7323902063723 
 O    1.9434040846232    0.0000000000000   -0.0000000000000 
 O    1.9434040846232    0.0000000000000    3.8868081972844 
 O    1.9434040846232    0.0000000000000    7.7896677434513 
 O    1.9434040846232    0.0000000000000   11.7147742282322 
 O    0.0000000000000    1.9434040846232    0.0000000000000 
 O    0.0000000000000    1.9434040846232    3.8868081972844 
 O    0.0000000000000    1.9434040846232    7.7896677434513 
 O    0.0000000000000    1.9434040846232   11.7147742282322 
 O    0.0000000000000    0.0000000000000    1.9434039459060 
 O    0.0000000000000    0.0000000000000    5.8302121431905 
 O    0.0000000000000    0.0000000000000    9.7592815204665 
 O    0.0000000000000    0.0000000000000   13.6724199049569 
20
FORCE:  0.072385  ...  ENERGY:  -124.15941527
Sr    1.9434040846232    1.9434040846232    1.9434039459060 
Sr    1.9434040846232    1.9434040846232    5.8302121431905 
Sr    1.9434040846232    1.9434040846232    9.7037087728913 
Sr    1.9434040846232    1.9434040846232   13.4329610644190 
Fe    0.0000000000000    0.0000000000000    0.0000000000000 
Fe    0.0000000000000    0.0000000000000    3.8868081972844 
Fe    0.0000000000000    0.0000000000000    7.7989962573662 
Fe    0.0000000000000    0.0000000000000   11.7357607880259 
 O    1.9434040846232    0.0000000000000   -0.0000000000000 
 O    1.9434040846232    0.0000000000000    3.8868081972844 
 O    1.9434040846232    0.0000000000000    7.7918741700676 
 O    1.9434040846232    0.0000000000000   11.7163040336446 
 O    0.0000000000000    1.9434040846232    0.0000000000000 
 O    0.0000000000000    1.9434040846232    3.8868081972844 
 O    0.0000000000000    1.9434040846232    7.7918741700676 
 O    0.0000000000000    1.9434040846232   11.7163040336446 
 O    0.0000000000000    0.0000000000000    1.9434039459060 
 O    0.0000000000000    0.0000000000000    5.8302121431905 
 O    0.0000000000000    0.0000000000000    9.7603164607096 
 O    0.0000000000000    0.0000000000000   13.6731573151537 
20
FORCE:  0.071444  ...  ENERGY:  -124.15959314
Sr    1.9434040846232    1.9434040846232    1.9434039459060 
Sr    1.9434040846232    1.9434040846232    5.8302121431905 
Sr    1.9434040846232    1.9434040846232    9.7078827467642 
Sr    1.9434040846232    1.9434040846232   13.4370333160071 
Fe    0.0000000000000    0.0000000000000    0.0000000000000 
Fe    0.0000000000000    0.0000000000000    3.8868081972844 
Fe    0.0000000000000    0.0000000000000    7.8043478270589 
Fe    0.0000000000000    0.0000000000000   11.7370159738166 
 O    1.9434040846232    0.0000000000000   -0.0000000000000 
 O    1.9434040846232    0.0000000000000    3.8868081972844 
 O    1.9434040846232    0.0000000000000    7.7934980609567 
 O    1.9434040846232    0.0000000000000   11.7186274561620 
 O    0.0000000000000    1.9434040846232    0.0000000000000 
 O    0.0000000000000    1.9434040846232    3.8868081972844 
 O    0.0000000000000    1.9434040846232    7.7934980609567 
 O    0.0000000000000    1.9434040846232   11.7186274561620 
 O    0.0000000000000    0.0000000000000    1.9434039459060 
 O    0.0000000000000    0.0000000000000    5.8302121431905 
 O    0.0000000000000    0.0000000000000    9.7653219302561 
 O    0.0000000000000    0.0000000000000   13.6791818403823 
20
FORCE:  0.104611  ...  ENERGY:  -124.15953635
Sr    1.9434040846232    1.9434040846232    1.9434039459060 
Sr    1.9434040846232    1.9434040846232    5.8302121431905 
Sr    1.9434040846232    1.9434040846232    9.7097378802047 
Sr    1.9434040846232    1.9434040846232   13.4388432395433 
Fe    0.0000000000000    0.0000000000000    0.0000000000000 
Fe    0.0000000000000    0.0000000000000    3.8868081972844 
Fe    0.0000000000000    0.0000000000000    7.8067265400674 
Fe    0.0000000000000    0.0000000000000   11.7375737662853 
 O    1.9434040846232    0.0000000000000   -0.0000000000000 
 O    1.9434040846232    0.0000000000000    3.8868081972844 
 O    1.9434040846232    0.0000000000000    7.7942198920648 
 O    1.9434040846232    0.0000000000000   11.7196599526265 
 O    0.0000000000000    1.9434040846232    0.0000000000000 
 O    0.0000000000000    1.9434040846232    3.8868081972844 
 O    0.0000000000000    1.9434040846232    7.7942198920648 
 O    0.0000000000000    1.9434040846232   11.7196599526265 
 O    0.0000000000000    0.0000000000000    1.9434039459060 
 O    0.0000000000000    0.0000000000000    5.8302121431905 
 O    0.0000000000000    0.0000000000000    9.7675466852119 
 O    0.0000000000000    0.0000000000000   13.6818593053264 
20
FORCE:  0.047972  ...  ENERGY:  -124.16009711
Sr    1.9434040846232    1.9434040846232    1.9434039459060 
Sr    1.9434040846232    1.9434040846232    5.8302121431905 
Sr    1.9434040846232    1.9434040846232    9.7150399633805 
Sr    1.9434040846232    1.9434040846232   13.4435386546780 
Fe    0.0000000000000    0.0000000000000    0.0000000000000 
Fe    0.0000000000000    0.0000000000000    3.8868081972844 
Fe    0.0000000000000    0.0000000000000    7.8049157001143 
Fe    0.0000000000000    0.0000000000000   11.7403544808759 
 O    1.9434040846232    0.0000000000000   -0.0000000000000 
 O    1.9434040846232    0.0000000000000    3.8868081972844 
 O    1.9434040846232    0.0000000000000    7.7954436142059 
 O    1.9434040846232    0.0000000000000   11.7220725730634 
 O    0.0000000000000    1.9434040846232    0.0000000000000 
 O    0.0000000000000    1.9434040846232    3.8868081972844 
 O    0.0000000000000    1.9434040846232    7.7954436142059 
 O    0.0000000000000    1.9434040846232   11.7220725730634 
 O    0.0000000000000    0.0000000000000    1.9434039459060 
 O    0.0000000000000    0.0000000000000    5.8302121431905 
 O    0.0000000000000    0.0000000000000    9.7727351326821 
 O    0.0000000000000    0.0000000000000   13.6870132344237 
20
FORCE:  0.065712  ...  ENERGY:  -124.15982964
Sr    1.9434040846232    1.9434040846232    1.9434039459060 
Sr    1.9434040846232    1.9434040846232    5.8302121431905 
Sr    1.9434040846232    1.9434040846232    9.7211454387756 
Sr    1.9434040846232    1.9434040846232   13.4489461258065 
Fe    0.0000000000000    0.0000000000000    0.0000000000000 
Fe    0.0000000000000    0.0000000000000    3.8868081972844 
Fe    0.0000000000000    0.0000000000000    7.8028302405395 
Fe    0.0000000000000    0.0000000000000   11.7435564418051 
 O    1.9434040846232    0.0000000000000   -0.0000000000000 
 O    1.9434040846232    0.0000000000000    3.8868081972844 
 O    1.9434040846232    0.0000000000000    7.7968527580493 
 O    1.9434040846232    0.0000000000000   11.7248514548200 
 O    0.0000000000000    1.9434040846232    0.0000000000000 
 O    0.0000000000000    1.9434040846232    3.8868081972844 
 O    0.0000000000000    1.9434040846232    7.7968527580493 
 O    0.0000000000000    1.9434040846232   11.7248514548200 
 O    0.0000000000000    0.0000000000000    1.9434039459060 
 O    0.0000000000000    0.0000000000000    5.8302121431905 
 O    0.0000000000000    0.0000000000000    9.7787101713937 
 O    0.0000000000000    0.0000000000000   13.6929479507881 
20
FORCE:  0.052737  ...  ENERGY:  -124.15982832
Sr    1.9434040846232    1.9434040846232    1.9434039459060 
Sr    1.9434040846232    1.9434040846232    5.8302121431905 
Sr    1.9434040846232    1.9434040846232    9.7272157848532 
Sr    1.9434040846232    1.9434040846232   13.4552617661625 
Fe    0.0000000000000    0.0000000000000    0.0000000000000 
Fe    0.0000000000000    0.0000000000000    3.8868081972844 
Fe    0.0000000000000    0.0000000000000    7.8021349855238 
Fe    0.0000000000000    0.0000000000000   11.7504228487662 
 O    1.9434040846232    0.0000000000000   -0.0000000000000 
 O    1.9434040846232    0.0000000000000    3.8868081972844 
 O    1.9434040846232    0.0000000000000    7.7974441524739 
 O    1.9434040846232    0.0000000000000   11.7298813621526 
 O    0.0000000000000    1.9434040846232    0.0000000000000 
 O    0.0000000000000    1.9434040846232    3.8868081972844 
 O    0.0000000000000    1.9434040846232    7.7974441524739 
 O    0.0000000000000    1.9434040846232   11.7298813621526 
 O    0.0000000000000    0.0000000000000    1.9434039459060 
 O    0.0000000000000    0.0000000000000    5.8302121431905 
 O    0.0000000000000    0.0000000000000    9.7798159812167 
 O    0.0000000000000    0.0000000000000   13.6957805956743 
20
FORCE:  0.064704  ...  ENERGY:  -124.15946235
Sr    1.9434040846232    1.9434040846232    1.9434039459060 
Sr    1.9434040846232    1.9434040846232    5.8302121431905 
Sr    1.9434040846232    1.9434040846232    9.7286643346267 
Sr    1.9434040846232    1.9434040846232   13.4567686611504 
Fe    0.0000000000000    0.0000000000000    0.0000000000000 
Fe    0.0000000000000    0.0000000000000    3.8868081972844 
Fe    0.0000000000000    0.0000000000000    7.8019691140503 
Fe    0.0000000000000    0.0000000000000   11.7520614023270 
 O    1.9434040846232    0.0000000000000   -0.0000000000000 
 O    1.9434040846232    0.0000000000000    3.8868081972844 
 O    1.9434040846232    0.0000000000000    7.7975852806888 
 O    1.9434040846232    0.0000000000000   11.7310818683968 
 O    0.0000000000000    1.9434040846232    0.0000000000000 
 O    0.0000000000000    1.9434040846232    3.8868081972844 
 O    0.0000000000000    1.9434040846232    7.7975852806888 
 O    0.0000000000000    1.9434040846232   11.7310818683968 
 O    0.0000000000000    0.0000000000000    1.9434039459060 
 O    0.0000000000000    0.0000000000000    5.8302121431905 
 O    0.0000000000000    0.0000000000000    9.7800796038347 
 O    0.0000000000000    0.0000000000000   13.6964566059334 
20
FORCE:  0.027965  ...  ENERGY:  -124.15980650
Sr    1.9434040846232    1.9434040846232    1.9434039459060 
Sr    1.9434040846232    1.9434040846232    5.8302121431905 
Sr    1.9434040846232    1.9434040846232    9.7314450492173 
Sr    1.9434040846232    1.9434040846232   13.4601074736820 
Fe    0.0000000000000    0.0000000000000    0.0000000000000 
Fe    0.0000000000000    0.0000000000000    3.8868081972844 
Fe    0.0000000000000    0.0000000000000    7.8060633596460 
Fe    0.0000000000000    0.0000000000000   11.7544059024350 
 O    1.9434040846232    0.0000000000000   -0.0000000000000 
 O    1.9434040846232    0.0000000000000    3.8868081972844 
 O    1.9434040846232    0.0000000000000    7.7969013281492 
 O    1.9434040846232    0.0000000000000   11.7372298044453 
 O    0.0000000000000    1.9434040846232    0.0000000000000 
 O    0.0000000000000    1.9434040846232    3.8868081972844 
 O    0.0000000000000    1.9434040846232    7.7969013281492 
 O    0.0000000000000    1.9434040846232   11.7372298044453 
 O    0.0000000000000    0.0000000000000    1.9434039459060 
 O    0.0000000000000    0.0000000000000    5.8302121431905 
 O    0.0000000000000    0.0000000000000    9.7786283048102 
 O    0.0000000000000    0.0000000000000   13.7005884246253 
20
FORCE:  0.037799  ...  ENERGY:  -124.15971017
Sr    1.9434040846232    1.9434040846232    1.9434039459060 
Sr    1.9434040846232    1.9434040846232    5.8302121431905 
Sr    1.9434040846232    1.9434040846232    9.7326244778710 
Sr    1.9434040846232    1.9434040846232   13.4615239488613 
Fe    0.0000000000000    0.0000000000000    0.0000000000000 
Fe    0.0000000000000    0.0000000000000    3.8868081972844 
Fe    0.0000000000000    0.0000000000000    7.8078002752960 
Fe    0.0000000000000    0.0000000000000   11.7554008258033 
 O    1.9434040846232    0.0000000000000   -0.0000000000000 
 O    1.9434040846232    0.0000000000000    3.8868081972844 
 O    1.9434040846232    0.0000000000000    7.7966114349111 
 O    1.9434040846232    0.0000000000000   11.7398382326436 
 O    0.0000000000000    1.9434040846232    0.0000000000000 
 O    0.0000000000000    1.9434040846232    3.8868081972844 
 O    0.0000000000000    1.9434040846232    7.7966114349111 
 O    0.0000000000000    1.9434040846232   11.7398382326436 
 O    0.0000000000000    0.0000000000000    1.9434039459060 
 O    0.0000000000000    0.0000000000000    5.8302121431905 
 O    0.0000000000000    0.0000000000000    9.7780124725994 
 O    0.0000000000000    0.0000000000000   13.7023412248363 
20
FORCE:  0.030890  ...  ENERGY:  -124.15979021
Sr    1.9434040846232    1.9434040846232    1.9434039459060 
Sr    1.9434040846232    1.9434040846232    5.8302121431905 
Sr    1.9434040846232    1.9434040846232    9.7320694346532 
Sr    1.9434040846232    1.9434040846232   13.4608574082442 
Fe    0.0000000000000    0.0000000000000    0.0000000000000 
Fe    0.0000000000000    0.0000000000000    3.8868081972844 
Fe    0.0000000000000    0.0000000000000    7.8069831368219 
Fe    0.0000000000000    0.0000000000000   11.7549328421986 
 O    1.9434040846232    0.0000000000000   -0.0000000000000 
 O    1.9434040846232    0.0000000000000    3.8868081972844 
 O    1.9434040846232    0.0000000000000    7.7967479810412 
 O    1.9434040846232    0.0000000000000   11.7386108448347 
 O    0.0000000000000    1.9434040846232    0.0000000000000 
 O    0.0000000000000    1.9434040846232    3.8868081972844 
 O    0.0000000000000    1.9434040846232    7.7967479810412 
 O    0.0000000000000    1.9434040846232   11.7386108448347 
 O    0.0000000000000    0.0000000000000    1.9434039459060 
 O    0.0000000000000    0.0000000000000    5.8302121431905 
 O    0.0000000000000    0.0000000000000    9.7783023658375 
 O    0.0000000000000    0.0000000000000   13.7015164495540 
20
FORCE:  0.025204  ...  ENERGY:  -124.15990864
Sr    1.9434040846232    1.9434040846232    1.9434039459060 
Sr    1.9434040846232    1.9434040846232    5.8302121431905 
Sr    1.9434040846232    1.9434040846232    9.7317572419353 
Sr    1.9434040846232    1.9434040846232   13.4604822882270 
Fe    0.0000000000000    0.0000000000000    0.0000000000000 
Fe    0.0000000000000    0.0000000000000    3.8868081972844 
Fe    0.0000000000000    0.0000000000000    7.8065230954978 
Fe    0.0000000000000    0.0000000000000   11.7546692195806 
 O    1.9434040846232    0.0000000000000   -0.0000000000000 
 O    1.9434040846232    0.0000000000000    3.8868081972844 
 O    1.9434040846232    0.0000000000000    7.7968246545952 
 O    1.9434040846232    0.0000000000000   11.7379204773762 
 O    0.0000000000000    1.9434040846232    0.0000000000000 
 O    0.0000000000000    1.9434040846232    3.8868081972844 
 O    0.0000000000000    1.9434040846232    7.7968246545952 
 O    0.0000000000000    1.9434040846232   11.7379204773762 
 O    0.0000000000000    0.0000000000000    1.9434039459060 
 O    0.0000000000000    0.0000000000000    5.8302121431905 
 O    0.0000000000000    0.0000000000000    9.7784651825877 
 O    0.0000000000000    0.0000000000000   13.7010524370897 
20
FORCE:  0.025243  ...  ENERGY:  -124.15999250
Sr    1.9434040846232    1.9434040846232    1.9434039459060 
Sr    1.9434040846232    1.9434040846232    5.8302121431905 
Sr    1.9434040846232    1.9434040846232    9.7316665166542 
Sr    1.9434040846232    1.9434040846232   13.4603735400786 
Fe    0.0000000000000    0.0000000000000    0.0000000000000 
Fe    0.0000000000000    0.0000000000000    3.8868081972844 
Fe    0.0000000000000    0.0000000000000    7.8063896040910 
Fe    0.0000000000000    0.0000000000000   11.7545928514989 
 O    1.9434040846232    0.0000000000000   -0.0000000000000 
 O    1.9434040846232    0.0000000000000    3.8868081972844 
 O    1.9434040846232    0.0000000000000    7.7968469540750 
 O    1.9434040846232    0.0000000000000   11.7377197820575 
 O    0.0000000000000    1.9434040846232    0.0000000000000 
 O    0.0000000000000    1.9434040846232    3.8868081972844 
 O    0.0000000000000    1.9434040846232    7.7968469540750 
 O    0.0000000000000    1.9434040846232   11.7377197820575 
 O    0.0000000000000    0.0000000000000    1.9434039459060 
 O    0.0000000000000    0.0000000000000    5.8302121431905 
 O    0.0000000000000    0.0000000000000    9.7785125307983 
 O    0.0000000000000    0.0000000000000   13.7009177237936 
20
FORCE:  0.015023  ...  ENERGY:  -124.16023260
Sr    1.9434040846232    1.9434040846232    1.9434039459060 
Sr    1.9434040846232    1.9434040846232    5.8302121431905 
Sr    1.9434040846232    1.9434040846232    9.7304217169226 
Sr    1.9434040846232    1.9434040846232   13.4612481073502 
Fe    0.0000000000000    0.0000000000000    0.0000000000000 
Fe    0.0000000000000    0.0000000000000    3.8868081972844 
Fe    0.0000000000000    0.0000000000000    7.8063734140577 
Fe    0.0000000000000    0.0000000000000   11.7560264331285 
 O    1.9434040846232    0.0000000000000   -0.0000000000000 
 O    1.9434040846232    0.0000000000000    3.8868081972844 
 O    1.9434040846232    0.0000000000000    7.7965995214904 
 O    1.9434040846232    0.0000000000000   11.7393760530132 
 O    0.0000000000000    1.9434040846232    0.0000000000000 
 O    0.0000000000000    1.9434040846232    3.8868081972844 
 O    0.0000000000000    1.9434040846232    7.7965995214904 
 O    0.0000000000000    1.9434040846232   11.7393760530132 
 O    0.0000000000000    0.0000000000000    1.9434039459060 
 O    0.0000000000000    0.0000000000000    5.8302121431905 
 O    0.0000000000000    0.0000000000000    9.7797921543752 
 O    0.0000000000000    0.0000000000000   13.7027038204882 
20
FORCE:  0.006854  ...  ENERGY:  -124.16043393
Sr    1.9434040846232    1.9434040846232    1.9434039459060 
Sr    1.9434040846232    1.9434040846232    5.8302121431905 
Sr    1.9434040846232    1.9434040846232    9.7285146531866 
Sr    1.9434040846232    1.9434040846232   13.4625879089754 
Fe    0.0000000000000    0.0000000000000    0.0000000000000 
Fe    0.0000000000000    0.0000000000000    3.8868081972844 
Fe    0.0000000000000    0.0000000000000    7.8063486707992 
Fe    0.0000000000000    0.0000000000000   11.7582227791580 
 O    1.9434040846232    0.0000000000000   -0.0000000000000 
 O    1.9434040846232    0.0000000000000    3.8868081972844 
 O    1.9434040846232    0.0000000000000    7.7962204303328 
 O    1.9434040846232    0.0000000000000   11.7419130006871 
 O    0.0000000000000    1.9434040846232    0.0000000000000 
 O    0.0000000000000    1.9434040846232    3.8868081972844 
 O    0.0000000000000    1.9434040846232    7.7962204303328 
 O    0.0000000000000    1.9434040846232   11.7419130006871 
 O    0.0000000000000    0.0000000000000    1.9434039459060 
 O    0.0000000000000    0.0000000000000    5.8302121431905 
 O    0.0000000000000    0.0000000000000    9.7817523702960 
 O    0.0000000000000    0.0000000000000   13.7054396306467 
