5
FORCE:  0.000000  ...  ENERGY:  -31.39671264
Sr    1.9443697808727    1.9443697808727    1.9443697808727 
Fe    0.0000000000000    0.0000000000000    0.0000000000000 
 O    1.9443697808727    0.0000000000000   -0.0000000000000 
 O    0.0000000000000    1.9443697808727    0.0000000000000 
 O    0.0000000000000    0.0000000000000    1.9443697808727 
5
FORCE:  0.000000  ...  ENERGY:  -31.43424292
Sr    3.8887395617453    0.0000000000000   -0.0000000000000 
Fe   15.2635205492658    0.0000000000000   -0.0000000000000 
 O    0.0000000000000   15.2635205492658    0.0000000000000 
 O    0.0000000000000    0.0000000000000   15.2635205492658 
 O    0.0000000000000    0.0000000000000    0.0000000000000 
5
FORCE:  0.000000  ...  ENERGY:  -31.49692776
Sr    0.0000000000000    0.0000000000000    7.7774791234906 
Fe    1.9443697808727    1.9443697808727    1.9443697808727 
 O    0.0000000000000    0.0000000000000    0.0000000000000 
 O    1.9443697808727    0.0000000000000   -0.0000000000000 
 O    0.0000000000000    1.9443697808727    0.0000000000000 
5
FORCE:  0.000000  ...  ENERGY:  -31.48215513
Sr    0.0000000000000    0.0000000000000    0.0000000000000 
Fe    3.8887395617453    0.0000000000000   -0.0000000000000 
 O   15.0521170004706    0.0000000000000   -0.0000000000000 
 O    0.0000000000000   15.0521170004706    0.0000000000000 
 O    0.0000000000000    0.0000000000000   15.0521170004706 
5
FORCE:  0.000000  ...  ENERGY:  -31.49145679
Sr    3.8887395617453    3.8887395617453   11.6662186852359 
Fe    0.0000000000000    0.0000000000000   11.6662186852359 
 O    1.9443697808727    1.9443697808727    1.9443697808727 
 O    0.0000000000000    0.0000000000000    0.0000000000000 
 O    1.9443697808727    0.0000000000000   -0.0000000000000 
5
FORCE:  0.000000  ...  ENERGY:  -31.39219573
Sr    0.0000000000000    0.0000000000000    1.9443697808727 
Fe    0.0000000000000    0.0000000000000    0.0000000000000 
 O    3.8887395617453    0.0000000000000   -0.0000000000000 
 O   15.1212898997949    0.0000000000000   -0.0000000000000 
 O    0.0000000000000   15.1212898997949    0.0000000000000 
5
FORCE:  0.000000  ...  ENERGY:  -31.49122486
Sr    0.0000000000000    0.0000000000000    0.0000000000000 
Fe    3.8887395617453    3.8887395617453   11.6662186852359 
 O    0.0000000000000    0.0000000000000   15.5549582469812 
 O    1.9443697808727    1.9443697808727    1.9443697808727 
 O    0.0000000000000    0.0000000000000    0.0000000000000 
5
FORCE:  0.000000  ...  ENERGY:  -31.49141852
Sr    0.0000000000000    1.9443697808727    0.0000000000000 
Fe    0.0000000000000    0.0000000000000    1.9443697808727 
 O    0.0000000000000    0.0000000000000    0.0000000000000 
 O    3.8887395617453    0.0000000000000   -0.0000000000000 
 O   15.1396991928802    0.0000000000000   -0.0000000000000 
5
FORCE:  0.000000  ...  ENERGY:  -31.49133032
Sr    0.0000000000000    0.0000000000000   15.1396991928802 
Fe    0.0000000000000    0.0000000000000    0.0000000000000 
 O    3.8887395617453    3.8887395617453   11.6662186852359 
 O    0.0000000000000    0.0000000000000   19.4436978087265 
 O    1.9443697808727    1.9443697808727    1.9443697808727 
5
FORCE:  0.000000  ...  ENERGY:  -31.49142778
Sr    1.9443697808727    0.0000000000000   -0.0000000000000 
Fe    0.0000000000000    1.9443697808727    0.0000000000000 
 O    0.0000000000000    0.0000000000000    1.9443697808727 
 O    0.0000000000000    0.0000000000000    0.0000000000000 
 O    3.8887395617453    0.0000000000000   -0.0000000000000 
5
FORCE:  0.000000  ...  ENERGY:  -31.49140058
Sr    0.0000000000000   15.1191977579107    0.0000000000000 
Fe    0.0000000000000    0.0000000000000   15.1191977579107 
 O    0.0000000000000    0.0000000000000    0.0000000000000 
 O    3.8887395617453    3.8887395617453   11.6662186852359 
 O    0.0000000000000    0.0000000000000   23.3324373704718 
5
FORCE:  0.000000  ...  ENERGY:  -31.49141665
Sr    0.0000000000000    0.0000000000000    0.0000000000000 
Fe    1.9443697808727    0.0000000000000   -0.0000000000000 
 O    0.0000000000000    1.9443697808727    0.0000000000000 
 O    0.0000000000000    0.0000000000000    1.9443697808727 
 O    0.0000000000000    0.0000000000000    0.0000000000000 
5
FORCE:  0.000000  ...  ENERGY:  -31.49146597
Sr   15.1180661346983    0.0000000000000   -0.0000000000000 
Fe    0.0000000000000   15.1180661346983    0.0000000000000 
 O    0.0000000000000    0.0000000000000   15.1180661346983 
 O    0.0000000000000    0.0000000000000    0.0000000000000 
 O    3.8887395617453    3.8887395617453   11.6662186852359 
5
FORCE:  0.000000  ...  ENERGY:  -31.49167897
Sr    1.9443697808727    1.9443697808727    1.9443697808727 
Fe    0.0000000000000    0.0000000000000    0.0000000000000 
 O    1.9443697808727    0.0000000000000   -0.0000000000000 
 O    0.0000000000000    1.9443697808727    0.0000000000000 
 O    0.0000000000000    0.0000000000000    1.9443697808727 
5
FORCE:  0.000000  ...  ENERGY:  -31.49147984
Sr    3.8887395617453    0.0000000000000   -0.0000000000000 
Fe   15.1196332967416    0.0000000000000   -0.0000000000000 
 O    0.0000000000000   15.1196332967416    0.0000000000000 
 O    0.0000000000000    0.0000000000000   15.1196332967416 
 O    0.0000000000000    0.0000000000000    0.0000000000000 
5
FORCE:    ...  ENERGY:  
Sr    0.0000000000000    0.0000000000000   31.1099164939624 
Fe    1.9443697808727    1.9443697808727    1.9443697808727 
 O    0.0000000000000    0.0000000000000    0.0000000000000 
 O    1.9443697808727    0.0000000000000   -0.0000000000000 
 O    0.0000000000000    1.9443697808727    0.0000000000000 
5
FORCE:    ...  ENERGY:  
Sr    0.0000000000000    0.0000000000000    0.0000000000000 
Fe    3.8887395617453    0.0000000000000   -0.0000000000000 
 O   15.1193805286701    0.0000000000000   -0.0000000000000 
 O    0.0000000000000   15.1193805286701    0.0000000000000 
 O    0.0000000000000    0.0000000000000   15.1193805286701 
5
FORCE:    ...  ENERGY:  
Sr    3.8887395617453    3.8887395617453   11.6662186852359 
Fe    0.0000000000000    0.0000000000000   34.9986560557077 
 O    1.9443697808727    1.9443697808727    1.9443697808727 
 O    0.0000000000000    0.0000000000000    0.0000000000000 
 O    1.9443697808727    0.0000000000000   -0.0000000000000 
5
FORCE:    ...  ENERGY:  
Sr    0.0000000000000    0.0000000000000    1.9443697808727 
Fe    0.0000000000000    0.0000000000000    0.0000000000000 
 O    3.8887395617453    0.0000000000000   -0.0000000000000 
 O   15.1195632994295    0.0000000000000   -0.0000000000000 
 O    0.0000000000000   15.1195632994295    0.0000000000000 
5
FORCE:    ...  ENERGY:  
Sr    0.0000000000000    0.0000000000000    0.0000000000000 
Fe    3.8887395617453    3.8887395617453   11.6662186852359 
 O    0.0000000000000    0.0000000000000   38.8873956174530 
 O    1.9443697808727    1.9443697808727    1.9443697808727 
 O    0.0000000000000    0.0000000000000    0.0000000000000 
5
FORCE:    ...  ENERGY:  
Sr    0.0000000000000    1.9443697808727    0.0000000000000 
Fe    0.0000000000000    0.0000000000000    1.9443697808727 
 O    0.0000000000000    0.0000000000000    0.0000000000000 
 O    3.8887395617453    0.0000000000000   -0.0000000000000 
 O   15.1199677283439    0.0000000000000   -0.0000000000000 
5
FORCE:    ...  ENERGY:  
Sr    0.0000000000000    0.0000000000000   15.1199677283439 
Fe    0.0000000000000    0.0000000000000    0.0000000000000 
 O    3.8887395617453    3.8887395617453   11.6662186852359 
 O    0.0000000000000    0.0000000000000   42.7761351791983 
 O    1.9443697808727    1.9443697808727    1.9443697808727 
5
FORCE:    ...  ENERGY:  
Sr    1.9443697808727    0.0000000000000   -0.0000000000000 
Fe    0.0000000000000    1.9443697808727    0.0000000000000 
 O    0.0000000000000    0.0000000000000    1.9443697808727 
 O    0.0000000000000    0.0000000000000    0.0000000000000 
 O    3.8887395617453    0.0000000000000   -0.0000000000000 
5
FORCE:    ...  ENERGY:  
Sr    0.0000000000000   15.1238059142914    0.0000000000000 
Fe    0.0000000000000    0.0000000000000   15.1238059142914 
 O    0.0000000000000    0.0000000000000    0.0000000000000 
 O    3.8887395617453    3.8887395617453   11.6662186852359 
 O    0.0000000000000    0.0000000000000   46.6648747409436 
5
FORCE:    ...  ENERGY:  
Sr    0.0000000000000    0.0000000000000    0.0000000000000 
Fe    1.9443697808727    0.0000000000000   -0.0000000000000 
 O    0.0000000000000    1.9443697808727    0.0000000000000 
 O    0.0000000000000    0.0000000000000    1.9443697808727 
 O    0.0000000000000    0.0000000000000    0.0000000000000 
5
FORCE:    ...  ENERGY:  
Sr   15.1207649199541    0.0000000000000   -0.0000000000000 
Fe    0.0000000000000   15.1207649199541    0.0000000000000 
 O    0.0000000000000    0.0000000000000   15.1207649199541 
 O    0.0000000000000    0.0000000000000    0.0000000000000 
 O    3.8887395617453    3.8887395617453   11.6662186852359 
5
FORCE:    ...  ENERGY:  
Sr    1.9443697808727    1.9443697808727    1.9443697808727 
Fe    0.0000000000000    0.0000000000000    0.0000000000000 
 O    1.9443697808727    0.0000000000000   -0.0000000000000 
 O    0.0000000000000    1.9443697808727    0.0000000000000 
 O    0.0000000000000    0.0000000000000    1.9443697808727 
5
FORCE:    ...  ENERGY:  
Sr    3.8887395617453    0.0000000000000   -0.0000000000000 
Fe   15.1222970833414    0.0000000000000   -0.0000000000000 
 O    0.0000000000000   15.1222970833414    0.0000000000000 
 O    0.0000000000000    0.0000000000000   15.1222970833414 
 O    0.0000000000000    0.0000000000000    0.0000000000000 
5
FORCE:    ...  ENERGY:  
Sr    0.0000000000000    0.0000000000000   54.4423538644342 
Fe    1.9443697808727    1.9443697808727    1.9443697808727 
 O    0.0000000000000    0.0000000000000    0.0000000000000 
 O    1.9443697808727    0.0000000000000   -0.0000000000000 
 O    0.0000000000000    1.9443697808727    0.0000000000000 
5
FORCE:    ...  ENERGY:  
Sr    0.0000000000000    0.0000000000000    0.0000000000000 
Fe    3.8887395617453    0.0000000000000   -0.0000000000000 
 O   15.1222970833414    0.0000000000000   -0.0000000000000 
 O    0.0000000000000   15.1222970833414    0.0000000000000 
 O    0.0000000000000    0.0000000000000   15.1222970833414 
5
FORCE:    ...  ENERGY:  
Sr    3.8887395617453    3.8887395617453   11.6662186852359 
Fe    0.0000000000000    0.0000000000000   58.3310934261795 
 O    1.9443697808727    1.9443697808727    1.9443697808727 
 O    0.0000000000000    0.0000000000000    0.0000000000000 
 O    1.9443697808727    0.0000000000000   -0.0000000000000 
5
FORCE:    ...  ENERGY:  
Sr    0.0000000000000    0.0000000000000    1.9443697808727 
Fe    0.0000000000000    0.0000000000000    0.0000000000000 
 O    0.0000000000000    0.0000000000000    0.0000000000000 
 O    0.0000000000000    0.0000000000000    0.0000000000000 
 O    0.0000000000000    0.0000000000000    0.0000000000000 
