21
FORCE:  0.368145  ...  ENERGY:  -126.62161978
Sr    1.9434040846232    1.9434040846232    1.9434039459060 
Sr    1.9434040846232    1.9434040846232    5.8302121431905 
Sr    1.9434040846232    1.9434040846232    9.7952337804934 
Sr    1.9434040846232    1.9434040846232   13.5806208886776 
Fe    0.0000000000000    0.0000000000000    0.0000000000000 
Fe    0.0000000000000    0.0000000000000    3.8868081972844 
Fe    0.0000000000000    0.0000000000000    7.8181518160333 
Fe    0.0000000000000    0.0000000000000   11.7601588627650 
 O    1.9434040846232    0.0000000000000   -0.0000000000000 
 O    1.9434040846232    0.0000000000000    3.8868081972844 
 O    1.9434040846232    0.0000000000000    7.8186143011360 
 O    1.9434040846232    0.0000000000000   11.7318348576823 
 O    0.0000000000000    1.9434040846232    0.0000000000000 
 O    0.0000000000000    1.9434040846232    3.8868081972844 
 O    0.0000000000000    1.9434040846232    7.8186143011360 
 O    0.0000000000000    1.9434040846232   11.7318348576823 
 O    0.0000000000000    0.0000000000000    1.9434039459060 
 O    0.0000000000000    0.0000000000000    5.8302121431905 
 O    0.0000000000000    0.0000000000000    9.8082908896288 
 O    0.0000000000000    0.0000000000000   13.6317148009978 
 O    1.9434040846232    1.9434040846232   16.0591399541430 
21
FORCE:  0.267259  ...  ENERGY:  -126.62953252
Sr    1.9434040846232    1.9434040846232    1.9434039459060 
Sr    1.9434040846232    1.9434040846232    5.8302121431905 
Sr    1.9434040846232    1.9434040846232    9.7909999340444 
Sr    1.9434040846232    1.9434040846232   13.5732739737465 
Fe    0.0000000000000    0.0000000000000    0.0000000000000 
Fe    0.0000000000000    0.0000000000000    3.8868081972844 
Fe    0.0000000000000    0.0000000000000    7.8196244981206 
Fe    0.0000000000000    0.0000000000000   11.7689692956137 
 O    1.9434040846232    0.0000000000000   -0.0000000000000 
 O    1.9434040846232    0.0000000000000    3.8868081972844 
 O    1.9434040846232    0.0000000000000    7.8168315646370 
 O    1.9434040846232    0.0000000000000   11.7299027452154 
 O    0.0000000000000    1.9434040846232    0.0000000000000 
 O    0.0000000000000    1.9434040846232    3.8868081972844 
 O    0.0000000000000    1.9434040846232    7.8168315646370 
 O    0.0000000000000    1.9434040846232   11.7299027452154 
 O    0.0000000000000    0.0000000000000    1.9434039459060 
 O    0.0000000000000    0.0000000000000    5.8302121431905 
 O    0.0000000000000    0.0000000000000    9.8090878669294 
 O    0.0000000000000    0.0000000000000   13.6182321689112 
 O    1.9434040846232    1.9434040846232   16.0769001152214 
21
FORCE:  0.306833  ...  ENERGY:  -126.63029521
Sr    1.9434040846232    1.9434040846232    1.9434039459060 
Sr    1.9434040846232    1.9434040846232    5.8302121431905 
Sr    1.9434040846232    1.9434040846232    9.7885240808359 
Sr    1.9434040846232    1.9434040846232   13.5689768945258 
Fe    0.0000000000000    0.0000000000000    0.0000000000000 
Fe    0.0000000000000    0.0000000000000    3.8868081972844 
Fe    0.0000000000000    0.0000000000000    7.8204856246098 
Fe    0.0000000000000    0.0000000000000   11.7741220028217 
 O    1.9434040846232    0.0000000000000   -0.0000000000000 
 O    1.9434040846232    0.0000000000000    3.8868081972844 
 O    1.9434040846232    0.0000000000000    7.8157886821134 
 O    1.9434040846232    0.0000000000000   11.7287728030787 
 O    0.0000000000000    1.9434040846232    0.0000000000000 
 O    0.0000000000000    1.9434040846232    3.8868081972844 
 O    0.0000000000000    1.9434040846232    7.8157886821134 
 O    0.0000000000000    1.9434040846232   11.7287728030787 
 O    0.0000000000000    0.0000000000000    1.9434039459060 
 O    0.0000000000000    0.0000000000000    5.8302121431905 
 O    0.0000000000000    0.0000000000000    9.8095543231724 
 O    0.0000000000000    0.0000000000000   13.6103470117403 
 O    1.9434040846232    1.9434040846232   16.0872870907486 
21
FORCE:  0.192909  ...  ENERGY:  -126.63539207
Sr    1.9434040846232    1.9434040846232    1.9434039459060 
Sr    1.9434040846232    1.9434040846232    5.8302121431905 
Sr    1.9434040846232    1.9434040846232    9.7837669602911 
Sr    1.9434040846232    1.9434040846232   13.5653753757932 
Fe    0.0000000000000    0.0000000000000    0.0000000000000 
Fe    0.0000000000000    0.0000000000000    3.8868081972844 
Fe    0.0000000000000    0.0000000000000    7.8228680032863 
Fe    0.0000000000000    0.0000000000000   11.7633990077351 
 O    1.9434040846232    0.0000000000000   -0.0000000000000 
 O    1.9434040846232    0.0000000000000    3.8868081972844 
 O    1.9434040846232    0.0000000000000    7.8131124390586 
 O    1.9434040846232    0.0000000000000   11.7264900083808 
 O    0.0000000000000    1.9434040846232    0.0000000000000 
 O    0.0000000000000    1.9434040846232    3.8868081972844 
 O    0.0000000000000    1.9434040846232    7.8131124390586 
 O    0.0000000000000    1.9434040846232   11.7264900083808 
 O    0.0000000000000    0.0000000000000    1.9434039459060 
 O    0.0000000000000    0.0000000000000    5.8302121431905 
 O    0.0000000000000    0.0000000000000    9.8111461394671 
 O    0.0000000000000    0.0000000000000   13.6082523879956 
 O    1.9434040846232    1.9434040846232   16.1090373313593 
21
FORCE:  0.467179  ...  ENERGY:  -126.63005464
Sr    1.9434040846232    1.9434040846232    1.9434039459060 
Sr    1.9434040846232    1.9434040846232    5.8302121431905 
Sr    1.9434040846232    1.9434040846232    9.7699748847374 
Sr    1.9434040846232    1.9434040846232   13.5549331097749 
Fe    0.0000000000000    0.0000000000000    0.0000000000000 
Fe    0.0000000000000    0.0000000000000    3.8868081972844 
Fe    0.0000000000000    0.0000000000000    7.8297750380669 
Fe    0.0000000000000    0.0000000000000   11.7323083397888 
 O    1.9434040846232    0.0000000000000   -0.0000000000000 
 O    1.9434040846232    0.0000000000000    3.8868081972844 
 O    1.9434040846232    0.0000000000000    7.8053525255416 
 O    1.9434040846232    0.0000000000000   11.7198710340043 
 O    0.0000000000000    1.9434040846232    0.0000000000000 
 O    0.0000000000000    1.9434040846232    3.8868081972844 
 O    0.0000000000000    1.9434040846232    7.8053525255416 
 O    0.0000000000000    1.9434040846232   11.7198710340043 
 O    0.0000000000000    0.0000000000000    1.9434039459060 
 O    0.0000000000000    0.0000000000000    5.8302121431905 
 O    0.0000000000000    0.0000000000000    9.8157615208523 
 O    0.0000000000000    0.0000000000000   13.6021789871948 
 O    1.9434040846232    1.9434040846232   16.1720993439699 
21
FORCE:  0.143745  ...  ENERGY:  -126.63886672
Sr    1.9434040846232    1.9434040846232    1.9434039459060 
Sr    1.9434040846232    1.9434040846232    5.8302121431905 
Sr    1.9434040846232    1.9434040846232    9.7783720135280 
Sr    1.9434040846232    1.9434040846232   13.5612909053120 
Fe    0.0000000000000    0.0000000000000    0.0000000000000 
Fe    0.0000000000000    0.0000000000000    3.8868081972844 
Fe    0.0000000000000    0.0000000000000    7.8255696005442 
Fe    0.0000000000000    0.0000000000000   11.7512375434617 
 O    1.9434040846232    0.0000000000000   -0.0000000000000 
 O    1.9434040846232    0.0000000000000    3.8868081972844 
 O    1.9434040846232    0.0000000000000    7.8100769605474 
 O    1.9434040846232    0.0000000000000   11.7239008249391 
 O    0.0000000000000    1.9434040846232    0.0000000000000 
 O    0.0000000000000    1.9434040846232    3.8868081972844 
 O    0.0000000000000    1.9434040846232    7.8100769605474 
 O    0.0000000000000    1.9434040846232   11.7239008249391 
 O    0.0000000000000    0.0000000000000    1.9434039459060 
 O    0.0000000000000    0.0000000000000    5.8302121431905 
 O    0.0000000000000    0.0000000000000    9.8129514809184 
 O    0.0000000000000    0.0000000000000   13.6058767297103 
 O    1.9434040846232    1.9434040846232   16.1337045272182 
21
FORCE:  0.131740  ...  ENERGY:  -126.63895047
Sr    1.9434040846232    1.9434040846232    1.9434039459060 
Sr    1.9434040846232    1.9434040846232    5.8302121431905 
Sr    1.9434040846232    1.9434040846232    9.7790736834626 
Sr    1.9434040846232    1.9434040846232   13.5618218162159 
Fe    0.0000000000000    0.0000000000000    0.0000000000000 
Fe    0.0000000000000    0.0000000000000    3.8868081972844 
Fe    0.0000000000000    0.0000000000000    7.8252183073684 
Fe    0.0000000000000    0.0000000000000   11.7528189736974 
 O    1.9434040846232    0.0000000000000   -0.0000000000000 
 O    1.9434040846232    0.0000000000000    3.8868081972844 
 O    1.9434040846232    0.0000000000000    7.8104719362660 
 O    1.9434040846232    0.0000000000000   11.7242374554432 
 O    0.0000000000000    1.9434040846232    0.0000000000000 
 O    0.0000000000000    1.9434040846232    3.8868081972844 
 O    0.0000000000000    1.9434040846232    7.8104719362660 
 O    0.0000000000000    1.9434040846232   11.7242374554432 
 O    0.0000000000000    0.0000000000000    1.9434039459060 
 O    0.0000000000000    0.0000000000000    5.8302121431905 
 O    0.0000000000000    0.0000000000000    9.8127168781714 
 O    0.0000000000000    0.0000000000000   13.6061855622327 
 O    1.9434040846232    1.9434040846232   16.1304967623148 
21
FORCE:  0.204140  ...  ENERGY:  -126.64013736
Sr    1.9434040846232    1.9434040846232    1.9434039459060 
Sr    1.9434040846232    1.9434040846232    5.8302121431905 
Sr    1.9434040846232    1.9434040846232    9.7743416116486 
Sr    1.9434040846232    1.9434040846232   13.5677375932961 
Fe    0.0000000000000    0.0000000000000    0.0000000000000 
Fe    0.0000000000000    0.0000000000000    3.8868081972844 
Fe    0.0000000000000    0.0000000000000    7.8192710666386 
Fe    0.0000000000000    0.0000000000000   11.7504445373014 
 O    1.9434040846232    0.0000000000000   -0.0000000000000 
 O    1.9434040846232    0.0000000000000    3.8868081972844 
 O    1.9434040846232    0.0000000000000    7.8107132594041 
 O    1.9434040846232    0.0000000000000   11.7199605373961 
 O    0.0000000000000    1.9434040846232    0.0000000000000 
 O    0.0000000000000    1.9434040846232    3.8868081972844 
 O    0.0000000000000    1.9434040846232    7.8107132594041 
 O    0.0000000000000    1.9434040846232   11.7199605373961 
 O    0.0000000000000    0.0000000000000    1.9434039459060 
 O    0.0000000000000    0.0000000000000    5.8302121431905 
 O    0.0000000000000    0.0000000000000    9.8051891236228 
 O    0.0000000000000    0.0000000000000   13.6029652729639 
 O    1.9434040846232    1.9434040846232   16.1469253695208 
21
FORCE:  0.106757  ...  ENERGY:  -126.64157870
Sr    1.9434040846232    1.9434040846232    1.9434039459060 
Sr    1.9434040846232    1.9434040846232    5.8302121431905 
Sr    1.9434040846232    1.9434040846232    9.7729501852002 
Sr    1.9434040846232    1.9434040846232   13.5694772581971 
Fe    0.0000000000000    0.0000000000000    0.0000000000000 
Fe    0.0000000000000    0.0000000000000    3.8868081972844 
Fe    0.0000000000000    0.0000000000000    7.8175225430401 
Fe    0.0000000000000    0.0000000000000   11.7497465330347 
 O    1.9434040846232    0.0000000000000   -0.0000000000000 
 O    1.9434040846232    0.0000000000000    3.8868081972844 
 O    1.9434040846232    0.0000000000000    7.8107844344562 
 O    1.9434040846232    0.0000000000000   11.7187032132991 
 O    0.0000000000000    1.9434040846232    0.0000000000000 
 O    0.0000000000000    1.9434040846232    3.8868081972844 
 O    0.0000000000000    1.9434040846232    7.8107844344562 
 O    0.0000000000000    1.9434040846232   11.7187032132991 
 O    0.0000000000000    0.0000000000000    1.9434039459060 
 O    0.0000000000000    0.0000000000000    5.8302121431905 
 O    0.0000000000000    0.0000000000000    9.8029756711430 
 O    0.0000000000000    0.0000000000000   13.6020186142232 
 O    1.9434040846232    1.9434040846232   16.1517561088964 
21
FORCE:  0.156176  ...  ENERGY:  -126.64150758
Sr    1.9434040846232    1.9434040846232    1.9434039459060 
Sr    1.9434040846232    1.9434040846232    5.8302121431905 
Sr    1.9434040846232    1.9434040846232    9.7701676377756 
Sr    1.9434040846232    1.9434040846232   13.5729559770543 
Fe    0.0000000000000    0.0000000000000    0.0000000000000 
Fe    0.0000000000000    0.0000000000000    3.8868081972844 
Fe    0.0000000000000    0.0000000000000    7.8140251903709 
Fe    0.0000000000000    0.0000000000000   11.7483502190291 
 O    1.9434040846232    0.0000000000000   -0.0000000000000 
 O    1.9434040846232    0.0000000000000    3.8868081972844 
 O    1.9434040846232    0.0000000000000    7.8109261736159 
 O    1.9434040846232    0.0000000000000   11.7161879541605 
 O    0.0000000000000    1.9434040846232    0.0000000000000 
 O    0.0000000000000    1.9434040846232    3.8868081972844 
 O    0.0000000000000    1.9434040846232    7.8109261736159 
 O    0.0000000000000    1.9434040846232   11.7161879541605 
 O    0.0000000000000    0.0000000000000    1.9434039459060 
 O    0.0000000000000    0.0000000000000    5.8302121431905 
 O    0.0000000000000    0.0000000000000    9.7985490716558 
 O    0.0000000000000    0.0000000000000   13.6001249912696 
 O    1.9434040846232    1.9434040846232   16.1614169767028 
21
FORCE:  0.080727  ...  ENERGY:  -126.64211644
Sr    1.9434040846232    1.9434040846232    1.9434039459060 
Sr    1.9434040846232    1.9434040846232    5.8302121431905 
Sr    1.9434040846232    1.9434040846232    9.7709731683013 
Sr    1.9434040846232    1.9434040846232   13.5719488347930 
Fe    0.0000000000000    0.0000000000000    0.0000000000000 
Fe    0.0000000000000    0.0000000000000    3.8868081972844 
Fe    0.0000000000000    0.0000000000000    7.8150375256619 
Fe    0.0000000000000    0.0000000000000   11.7487543589174 
 O    1.9434040846232    0.0000000000000   -0.0000000000000 
 O    1.9434040846232    0.0000000000000    3.8868081972844 
 O    1.9434040846232    0.0000000000000    7.8108852403241 
 O    1.9434040846232    0.0000000000000   11.7169162001875 
 O    0.0000000000000    1.9434040846232    0.0000000000000 
 O    0.0000000000000    1.9434040846232    3.8868081972844 
 O    0.0000000000000    1.9434040846232    7.8108852403241 
 O    0.0000000000000    1.9434040846232   11.7169162001875 
 O    0.0000000000000    0.0000000000000    1.9434039459060 
 O    0.0000000000000    0.0000000000000    5.8302121431905 
 O    0.0000000000000    0.0000000000000    9.7998305280666 
 O    0.0000000000000    0.0000000000000   13.6006730086238 
 O    1.9434040846232    1.9434040846232   16.1586203775512 
21
FORCE:  0.085064  ...  ENERGY:  -126.64217767
Sr    1.9434040846232    1.9434040846232    1.9434039459060 
Sr    1.9434040846232    1.9434040846232    5.8302121431905 
Sr    1.9434040846232    1.9434040846232    9.7705357319294 
Sr    1.9434040846232    1.9434040846232   13.5724959357302 
Fe    0.0000000000000    0.0000000000000    0.0000000000000 
Fe    0.0000000000000    0.0000000000000    3.8868081972844 
Fe    0.0000000000000    0.0000000000000    7.8144876754737 
Fe    0.0000000000000    0.0000000000000   11.7485350297868 
 O    1.9434040846232    0.0000000000000   -0.0000000000000 
 O    1.9434040846232    0.0000000000000    3.8868081972844 
 O    1.9434040846232    0.0000000000000    7.8109075398039 
 O    1.9434040846232    0.0000000000000   11.7165206135243 
 O    0.0000000000000    1.9434040846232    0.0000000000000 
 O    0.0000000000000    1.9434040846232    3.8868081972844 
 O    0.0000000000000    1.9434040846232    7.8109075398039 
 O    0.0000000000000    1.9434040846232   11.7165206135243 
 O    0.0000000000000    0.0000000000000    1.9434039459060 
 O    0.0000000000000    0.0000000000000    5.8302121431905 
 O    0.0000000000000    0.0000000000000    9.7991343566339 
 O    0.0000000000000    0.0000000000000   13.6003754785775 
 O    1.9434040846232    1.9434040846232   16.1601391859599 
21
FORCE:  0.090381  ...  ENERGY:  -126.64210569
Sr    1.9434040846232    1.9434040846232    1.9434039459060 
Sr    1.9434040846232    1.9434040846232    5.8302121431905 
Sr    1.9434040846232    1.9434040846232    9.7703640564817 
Sr    1.9434040846232    1.9434040846232   13.5727103773036 
Fe    0.0000000000000    0.0000000000000    0.0000000000000 
Fe    0.0000000000000    0.0000000000000    3.8868081972844 
Fe    0.0000000000000    0.0000000000000    7.8142720120110 
Fe    0.0000000000000    0.0000000000000   11.7484488865906 
 O    1.9434040846232    0.0000000000000   -0.0000000000000 
 O    1.9434040846232    0.0000000000000    3.8868081972844 
 O    1.9434040846232    0.0000000000000    7.8109163985014 
 O    1.9434040846232    0.0000000000000   11.7163654335823 
 O    0.0000000000000    1.9434040846232    0.0000000000000 
 O    0.0000000000000    1.9434040846232    3.8868081972844 
 O    0.0000000000000    1.9434040846232    7.8109163985014 
 O    0.0000000000000    1.9434040846232   11.7163654335823 
 O    0.0000000000000    0.0000000000000    1.9434039459060 
 O    0.0000000000000    0.0000000000000    5.8302121431905 
 O    0.0000000000000    0.0000000000000    9.7988615698461 
 O    0.0000000000000    0.0000000000000   13.6002584826764 
 O    1.9434040846232    1.9434040846232   16.1607348569971 
21
FORCE:  0.048069  ...  ENERGY:  -126.64232362
Sr    1.9434040846232    1.9434040846232    1.9434039459060 
Sr    1.9434040846232    1.9434040846232    5.8302121431905 
Sr    1.9434040846232    1.9434040846232    9.7702659998648 
Sr    1.9434040846232    1.9434040846232   13.5728331771790 
Fe    0.0000000000000    0.0000000000000    0.0000000000000 
Fe    0.0000000000000    0.0000000000000    3.8868081972844 
Fe    0.0000000000000    0.0000000000000    7.8141486011910 
Fe    0.0000000000000    0.0000000000000   11.7483994000737 
 O    1.9434040846232    0.0000000000000   -0.0000000000000 
 O    1.9434040846232    0.0000000000000    3.8868081972844 
 O    1.9434040846232    0.0000000000000    7.8109212860586 
 O    1.9434040846232    0.0000000000000   11.7162768466076 
 O    0.0000000000000    1.9434040846232    0.0000000000000 
 O    0.0000000000000    1.9434040846232    3.8868081972844 
 O    0.0000000000000    1.9434040846232    7.8109212860586 
 O    0.0000000000000    1.9434040846232   11.7162768466076 
 O    0.0000000000000    0.0000000000000    1.9434039459060 
 O    0.0000000000000    0.0000000000000    5.8302121431905 
 O    0.0000000000000    0.0000000000000    9.7987051680148 
 O    0.0000000000000    0.0000000000000   13.6001918897091 
 O    1.9434040846232    1.9434040846232   16.1610760695861 
21
FORCE:  0.075666  ...  ENERGY:  -126.64318587
Sr    1.9434040846232    1.9434040846232    1.9434039459060 
Sr    1.9434040846232    1.9434040846232    5.8302121431905 
Sr    1.9434040846232    1.9434040846232    9.7702119312630 
Sr    1.9434040846232    1.9434040846232   13.5729003810909 
Fe    0.0000000000000    0.0000000000000    0.0000000000000 
Fe    0.0000000000000    0.0000000000000    3.8868081972844 
Fe    0.0000000000000    0.0000000000000    7.8140810918067 
Fe    0.0000000000000    0.0000000000000   11.7483725185089 
 O    1.9434040846232    0.0000000000000   -0.0000000000000 
 O    1.9434040846232    0.0000000000000    3.8868081972844 
 O    1.9434040846232    0.0000000000000    7.8109240353096 
 O    1.9434040846232    0.0000000000000   11.7162282765076 
 O    0.0000000000000    1.9434040846232    0.0000000000000 
 O    0.0000000000000    1.9434040846232    3.8868081972844 
 O    0.0000000000000    1.9434040846232    7.8109240353096 
 O    0.0000000000000    1.9434040846232   11.7162282765076 
 O    0.0000000000000    0.0000000000000    1.9434039459060 
 O    0.0000000000000    0.0000000000000    5.8302121431905 
 O    0.0000000000000    0.0000000000000    9.7986196357633 
 O    0.0000000000000    0.0000000000000   13.6001552330299 
 O    1.9434040846232    1.9434040846232   16.1612627131778 
21
FORCE:  0.064739  ...  ENERGY:  -126.64308892
Sr    1.9434040846232    1.9434040846232    1.9434039459060 
Sr    1.9434040846232    1.9434040846232    5.8302121431905 
Sr    1.9434040846232    1.9434040846232    9.7701798566687 
Sr    1.9434040846232    1.9434040846232   13.5729410089103 
Fe    0.0000000000000    0.0000000000000    0.0000000000000 
Fe    0.0000000000000    0.0000000000000    3.8868081972844 
Fe    0.0000000000000    0.0000000000000    7.8140404639873 
Fe    0.0000000000000    0.0000000000000   11.7483563284756 
 O    1.9434040846232    0.0000000000000   -0.0000000000000 
 O    1.9434040846232    0.0000000000000    3.8868081972844 
 O    1.9434040846232    0.0000000000000    7.8109255626712 
 O    1.9434040846232    0.0000000000000   11.7161989511642 
 O    0.0000000000000    1.9434040846232    0.0000000000000 
 O    0.0000000000000    1.9434040846232    3.8868081972844 
 O    0.0000000000000    1.9434040846232    7.8109255626712 
 O    0.0000000000000    1.9434040846232   11.7161989511642 
 O    0.0000000000000    0.0000000000000    1.9434039459060 
 O    0.0000000000000    0.0000000000000    5.8302121431905 
 O    0.0000000000000    0.0000000000000    9.7985680109401 
 O    0.0000000000000    0.0000000000000   13.6001332390224 
 O    1.9434040846232    1.9434040846232   16.1613751269940 
21
FORCE:  0.049337  ...  ENERGY:  -126.64239220
Sr    1.9434040846232    1.9434040846232    1.9434039459060 
Sr    1.9434040846232    1.9434040846232    5.8302121431905 
Sr    1.9434040846232    1.9434040846232    9.7701709979712 
Sr    1.9434040846232    1.9434040846232   13.5729517004418 
Fe    0.0000000000000    0.0000000000000    0.0000000000000 
Fe    0.0000000000000    0.0000000000000    3.8868081972844 
Fe    0.0000000000000    0.0000000000000    7.8140294669835 
Fe    0.0000000000000    0.0000000000000   11.7483520518630 
 O    1.9434040846232    0.0000000000000   -0.0000000000000 
 O    1.9434040846232    0.0000000000000    3.8868081972844 
 O    1.9434040846232    0.0000000000000    7.8109261736159 
 O    1.9434040846232    0.0000000000000   11.7161910088837 
 O    0.0000000000000    1.9434040846232    0.0000000000000 
 O    0.0000000000000    1.9434040846232    3.8868081972844 
 O    0.0000000000000    1.9434040846232    7.8109261736159 
 O    0.0000000000000    1.9434040846232   11.7161910088837 
 O    0.0000000000000    0.0000000000000    1.9434039459060 
 O    0.0000000000000    0.0000000000000    5.8302121431905 
 O    0.0000000000000    0.0000000000000    9.7985545701577 
 O    0.0000000000000    0.0000000000000   13.6001271295759 
 O    1.9434040846232    1.9434040846232   16.1614050632821 
21
FORCE:  0.040174  ...  ENERGY:  -126.64253710
Sr    1.9434040846232    1.9434040846232    1.9434039459060 
Sr    1.9434040846232    1.9434040846232    5.8302121431905 
Sr    1.9434040846232    1.9434040846232    9.7701691651373 
Sr    1.9434040846232    1.9434040846232   13.5729541442204 
Fe    0.0000000000000    0.0000000000000    0.0000000000000 
Fe    0.0000000000000    0.0000000000000    3.8868081972844 
Fe    0.0000000000000    0.0000000000000    7.8140270232049 
Fe    0.0000000000000    0.0000000000000   11.7483511354461 
 O    1.9434040846232    0.0000000000000   -0.0000000000000 
 O    1.9434040846232    0.0000000000000    3.8868081972844 
 O    1.9434040846232    0.0000000000000    7.8109261736159 
 O    1.9434040846232    0.0000000000000   11.7161894815221 
 O    0.0000000000000    1.9434040846232    0.0000000000000 
 O    0.0000000000000    1.9434040846232    3.8868081972844 
 O    0.0000000000000    1.9434040846232    7.8109261736159 
 O    0.0000000000000    1.9434040846232   11.7161894815221 
 O    0.0000000000000    0.0000000000000    1.9434039459060 
 O    0.0000000000000    0.0000000000000    5.8302121431905 
 O    0.0000000000000    0.0000000000000    9.7985515154344 
 O    0.0000000000000    0.0000000000000   13.6001259076865 
 O    1.9434040846232    1.9434040846232   16.1614114782009 
21
FORCE:  0.040223  ...  ENERGY:  -126.64256955
Sr    1.9434040846232    1.9434040846232    1.9434039459060 
Sr    1.9434040846232    1.9434040846232    5.8302121431905 
Sr    1.9434040846232    1.9434040846232    9.7701682487203 
Sr    1.9434040846232    1.9434040846232   13.5729550606373 
Fe    0.0000000000000    0.0000000000000    0.0000000000000 
Fe    0.0000000000000    0.0000000000000    3.8868081972844 
Fe    0.0000000000000    0.0000000000000    7.8140258013156 
Fe    0.0000000000000    0.0000000000000   11.7483505245014 
 O    1.9434040846232    0.0000000000000   -0.0000000000000 
 O    1.9434040846232    0.0000000000000    3.8868081972844 
 O    1.9434040846232    0.0000000000000    7.8109261736159 
 O    1.9434040846232    0.0000000000000   11.7161885651051 
 O    0.0000000000000    1.9434040846232    0.0000000000000 
 O    0.0000000000000    1.9434040846232    3.8868081972844 
 O    0.0000000000000    1.9434040846232    7.8109261736159 
 O    0.0000000000000    1.9434040846232   11.7161885651051 
 O    0.0000000000000    0.0000000000000    1.9434039459060 
 O    0.0000000000000    0.0000000000000    5.8302121431905 
 O    0.0000000000000    0.0000000000000    9.7985499880728 
 O    0.0000000000000    0.0000000000000   13.6001252967419 
 O    1.9434040846232    1.9434040846232   16.1614148383965 
21
FORCE:  0.040269  ...  ENERGY:  -126.64256572
Sr    1.9434040846232    1.9434040846232    1.9434039459060 
Sr    1.9434040846232    1.9434040846232    5.8302121431905 
Sr    1.9434040846232    1.9434040846232    9.7701679432480 
Sr    1.9434040846232    1.9434040846232   13.5729556715820 
Fe    0.0000000000000    0.0000000000000    0.0000000000000 
Fe    0.0000000000000    0.0000000000000    3.8868081972844 
Fe    0.0000000000000    0.0000000000000    7.8140254958433 
Fe    0.0000000000000    0.0000000000000   11.7483502190291 
 O    1.9434040846232    0.0000000000000   -0.0000000000000 
 O    1.9434040846232    0.0000000000000    3.8868081972844 
 O    1.9434040846232    0.0000000000000    7.8109261736159 
 O    1.9434040846232    0.0000000000000   11.7161882596328 
 O    0.0000000000000    1.9434040846232    0.0000000000000 
 O    0.0000000000000    1.9434040846232    3.8868081972844 
 O    0.0000000000000    1.9434040846232    7.8109261736159 
 O    0.0000000000000    1.9434040846232   11.7161882596328 
 O    0.0000000000000    0.0000000000000    1.9434039459060 
 O    0.0000000000000    0.0000000000000    5.8302121431905 
 O    0.0000000000000    0.0000000000000    9.7985493771281 
 O    0.0000000000000    0.0000000000000   13.6001249912696 
 O    1.9434040846232    1.9434040846232   16.1614160602858 
21
FORCE:  0.040284  ...  ENERGY:  -126.64258149
Sr    1.9434040846232    1.9434040846232    1.9434039459060 
Sr    1.9434040846232    1.9434040846232    5.8302121431905 
Sr    1.9434040846232    1.9434040846232    9.7701676377756 
Sr    1.9434040846232    1.9434040846232   13.5729559770543 
Fe    0.0000000000000    0.0000000000000    0.0000000000000 
Fe    0.0000000000000    0.0000000000000    3.8868081972844 
Fe    0.0000000000000    0.0000000000000    7.8140251903709 
Fe    0.0000000000000    0.0000000000000   11.7483502190291 
 O    1.9434040846232    0.0000000000000   -0.0000000000000 
 O    1.9434040846232    0.0000000000000    3.8868081972844 
 O    1.9434040846232    0.0000000000000    7.8109261736159 
 O    1.9434040846232    0.0000000000000   11.7161879541605 
 O    0.0000000000000    1.9434040846232    0.0000000000000 
 O    0.0000000000000    1.9434040846232    3.8868081972844 
 O    0.0000000000000    1.9434040846232    7.8109261736159 
 O    0.0000000000000    1.9434040846232   11.7161879541605 
 O    0.0000000000000    0.0000000000000    1.9434039459060 
 O    0.0000000000000    0.0000000000000    5.8302121431905 
 O    0.0000000000000    0.0000000000000    9.7985490716558 
 O    0.0000000000000    0.0000000000000   13.6001249912696 
 O    1.9434040846232    1.9434040846232   16.1614166712305 
21
FORCE:  0.040289  ...  ENERGY:  -126.64258593
Sr    1.9434040846232    1.9434040846232    1.9434039459060 
Sr    1.9434040846232    1.9434040846232    5.8302121431905 
Sr    1.9434040846232    1.9434040846232    9.7701676377756 
Sr    1.9434040846232    1.9434040846232   13.5729559770543 
Fe    0.0000000000000    0.0000000000000    0.0000000000000 
Fe    0.0000000000000    0.0000000000000    3.8868081972844 
Fe    0.0000000000000    0.0000000000000    7.8140251903709 
Fe    0.0000000000000    0.0000000000000   11.7483502190291 
 O    1.9434040846232    0.0000000000000   -0.0000000000000 
 O    1.9434040846232    0.0000000000000    3.8868081972844 
 O    1.9434040846232    0.0000000000000    7.8109261736159 
 O    1.9434040846232    0.0000000000000   11.7161879541605 
 O    0.0000000000000    1.9434040846232    0.0000000000000 
 O    0.0000000000000    1.9434040846232    3.8868081972844 
 O    0.0000000000000    1.9434040846232    7.8109261736159 
 O    0.0000000000000    1.9434040846232   11.7161879541605 
 O    0.0000000000000    0.0000000000000    1.9434039459060 
 O    0.0000000000000    0.0000000000000    5.8302121431905 
 O    0.0000000000000    0.0000000000000    9.7985490716558 
 O    0.0000000000000    0.0000000000000   13.6001249912696 
 O    1.9434040846232    1.9434040846232   16.1614169767028 
21
FORCE:  0.040301  ...  ENERGY:  -126.64258964
Sr    1.9434040846232    1.9434040846232    1.9434039459060 
Sr    1.9434040846232    1.9434040846232    5.8302121431905 
Sr    1.9434040846232    1.9434040846232    9.7701676377756 
Sr    1.9434040846232    1.9434040846232   13.5729559770543 
Fe    0.0000000000000    0.0000000000000    0.0000000000000 
Fe    0.0000000000000    0.0000000000000    3.8868081972844 
Fe    0.0000000000000    0.0000000000000    7.8140251903709 
Fe    0.0000000000000    0.0000000000000   11.7483502190291 
 O    1.9434040846232    0.0000000000000   -0.0000000000000 
 O    1.9434040846232    0.0000000000000    3.8868081972844 
 O    1.9434040846232    0.0000000000000    7.8109261736159 
 O    1.9434040846232    0.0000000000000   11.7161879541605 
 O    0.0000000000000    1.9434040846232    0.0000000000000 
 O    0.0000000000000    1.9434040846232    3.8868081972844 
 O    0.0000000000000    1.9434040846232    7.8109261736159 
 O    0.0000000000000    1.9434040846232   11.7161879541605 
 O    0.0000000000000    0.0000000000000    1.9434039459060 
 O    0.0000000000000    0.0000000000000    5.8302121431905 
 O    0.0000000000000    0.0000000000000    9.7985490716558 
 O    0.0000000000000    0.0000000000000   13.6001249912696 
 O    1.9434040846232    1.9434040846232   16.1614169767028 
21
FORCE:  0.040301  ...  ENERGY:  -126.64259099
Sr    1.9434040846232    1.9434040846232    1.9434039459060 
Sr    1.9434040846232    1.9434040846232    5.8302121431905 
Sr    1.9434040846232    1.9434040846232    9.7701676377756 
Sr    1.9434040846232    1.9434040846232   13.5729559770543 
Fe    0.0000000000000    0.0000000000000    0.0000000000000 
Fe    0.0000000000000    0.0000000000000    3.8868081972844 
Fe    0.0000000000000    0.0000000000000    7.8140251903709 
Fe    0.0000000000000    0.0000000000000   11.7483502190291 
 O    1.9434040846232    0.0000000000000   -0.0000000000000 
 O    1.9434040846232    0.0000000000000    3.8868081972844 
 O    1.9434040846232    0.0000000000000    7.8109261736159 
 O    1.9434040846232    0.0000000000000   11.7161879541605 
 O    0.0000000000000    1.9434040846232    0.0000000000000 
 O    0.0000000000000    1.9434040846232    3.8868081972844 
 O    0.0000000000000    1.9434040846232    7.8109261736159 
 O    0.0000000000000    1.9434040846232   11.7161879541605 
 O    0.0000000000000    0.0000000000000    1.9434039459060 
 O    0.0000000000000    0.0000000000000    5.8302121431905 
 O    0.0000000000000    0.0000000000000    9.7985490716558 
 O    0.0000000000000    0.0000000000000   13.6001249912696 
 O    1.9434040846232    1.9434040846232   16.1614169767028 
21
FORCE:  0.040307  ...  ENERGY:  -126.64259205
Sr    1.9434040846232    1.9434040846232    1.9434039459060 
Sr    1.9434040846232    1.9434040846232    5.8302121431905 
Sr    1.9434040846232    1.9434040846232    9.7701676377756 
Sr    1.9434040846232    1.9434040846232   13.5729559770543 
Fe    0.0000000000000    0.0000000000000    0.0000000000000 
Fe    0.0000000000000    0.0000000000000    3.8868081972844 
Fe    0.0000000000000    0.0000000000000    7.8140251903709 
Fe    0.0000000000000    0.0000000000000   11.7483502190291 
 O    1.9434040846232    0.0000000000000   -0.0000000000000 
 O    1.9434040846232    0.0000000000000    3.8868081972844 
 O    1.9434040846232    0.0000000000000    7.8109261736159 
 O    1.9434040846232    0.0000000000000   11.7161879541605 
 O    0.0000000000000    1.9434040846232    0.0000000000000 
 O    0.0000000000000    1.9434040846232    3.8868081972844 
 O    0.0000000000000    1.9434040846232    7.8109261736159 
 O    0.0000000000000    1.9434040846232   11.7161879541605 
 O    0.0000000000000    0.0000000000000    1.9434039459060 
 O    0.0000000000000    0.0000000000000    5.8302121431905 
 O    0.0000000000000    0.0000000000000    9.7985490716558 
 O    0.0000000000000    0.0000000000000   13.6001249912696 
 O    1.9434040846232    1.9434040846232   16.1614169767028 
