5
FORCE:  0.000000  ...  ENERGY:  -31.47837962
Sr    1.9434040846232    1.9434040846232    1.9434040846232 
Fe    0.0000000000000    0.0000000000000    0.0000000000000 
 O    1.9434040846232    0.0000000000000   -0.0000000000000 
 O    0.0000000000000    1.9434040846232    0.0000000000000 
 O    0.0000000000000    0.0000000000000    1.9434040846232 
