21
FORCE:  0.720167  ...  ENERGY:  -128.34456701
Sr    1.9434040846232    1.9434040846232    1.9434039459060 
Sr    1.9434040846232    1.9434040846232    5.8302121431905 
Sr    1.9434040846232    1.9434040846232    9.6615129639776 
Sr    1.9434040846232    1.9434040846232   13.7368272176947 
Fe    0.0000000000000    0.0000000000000    0.0000000000000 
Fe    0.0000000000000    0.0000000000000    3.8868081972844 
Fe    0.0000000000000    0.0000000000000    7.7827472678883 
Fe    0.0000000000000    0.0000000000000   11.7342077667166 
 O    1.9434040846232    0.0000000000000   -0.0000000000000 
 O    1.9434040846232    0.0000000000000    3.8868081972844 
 O    1.9434040846232    0.0000000000000    7.8471026503306 
 O    1.9434040846232    0.0000000000000   12.1247657444403 
 O    0.0000000000000    1.9434040846232    0.0000000000000 
 O    0.0000000000000    1.9434040846232    3.8868081972844 
 O    0.0000000000000    1.9434040846232    7.8471026503306 
 O    0.0000000000000    1.9434040846232   12.1247657444403 
 O    0.0000000000000    0.0000000000000    1.9434039459060 
 O    0.0000000000000    0.0000000000000    5.8302121431905 
 O    0.0000000000000    0.0000000000000    9.8559766471992 
 O    0.0000000000000    0.0000000000000   14.4057477696044 
 O    0.0000000000000    0.0000000000000   15.8217928438001 
21
FORCE:  1.557584  ...  ENERGY:  -128.31463869
Sr    1.9434040846232    1.9434040846232    1.9434039459060 
Sr    1.9434040846232    1.9434040846232    5.8302121431905 
Sr    1.9434040846232    1.9434040846232    9.6654159838967 
Sr    1.9434040846232    1.9434040846232   13.7562928307734 
Fe    0.0000000000000    0.0000000000000    0.0000000000000 
Fe    0.0000000000000    0.0000000000000    3.8868081972844 
Fe    0.0000000000000    0.0000000000000    7.7844826561767 
Fe    0.0000000000000    0.0000000000000   11.7394753315194 
 O    1.9434040846232    0.0000000000000   -0.0000000000000 
 O    1.9434040846232    0.0000000000000    3.8868081972844 
 O    1.9434040846232    0.0000000000000    7.8470391120866 
 O    1.9434040846232    0.0000000000000   12.1206608073132 
 O    0.0000000000000    1.9434040846232    0.0000000000000 
 O    0.0000000000000    1.9434040846232    3.8868081972844 
 O    0.0000000000000    1.9434040846232    7.8470391120866 
 O    0.0000000000000    1.9434040846232   12.1206608073132 
 O    0.0000000000000    0.0000000000000    1.9434039459060 
 O    0.0000000000000    0.0000000000000    5.8302121431905 
 O    0.0000000000000    0.0000000000000    9.8541248739544 
 O    0.0000000000000    0.0000000000000   14.3710051799915 
 O    0.0000000000000    0.0000000000000   15.8371138083492 
21
FORCE:  0.399577  ...  ENERGY:  -128.34484950
Sr    1.9434040846232    1.9434040846232    1.9434039459060 
Sr    1.9434040846232    1.9434040846232    5.8302121431905 
Sr    1.9434040846232    1.9434040846232    9.6623352954812 
Sr    1.9434040846232    1.9434040846232   13.7409275727369 
Fe    0.0000000000000    0.0000000000000    0.0000000000000 
Fe    0.0000000000000    0.0000000000000    3.8868081972844 
Fe    0.0000000000000    0.0000000000000    7.7831129182635 
Fe    0.0000000000000    0.0000000000000   11.7353172422074 
 O    1.9434040846232    0.0000000000000   -0.0000000000000 
 O    1.9434040846232    0.0000000000000    3.8868081972844 
 O    1.9434040846232    0.0000000000000    7.8470892095482 
 O    1.9434040846232    0.0000000000000   12.1239012577555 
 O    0.0000000000000    1.9434040846232    0.0000000000000 
 O    0.0000000000000    1.9434040846232    3.8868081972844 
 O    0.0000000000000    1.9434040846232    7.8470892095482 
 O    0.0000000000000    1.9434040846232   12.1239012577555 
 O    0.0000000000000    0.0000000000000    1.9434039459060 
 O    0.0000000000000    0.0000000000000    5.8302121431905 
 O    0.0000000000000    0.0000000000000    9.8555865590380 
 O    0.0000000000000    0.0000000000000   14.3984292635996 
 O    0.0000000000000    0.0000000000000   15.8250201589324 
21
FORCE:  0.287747  ...  ENERGY:  -128.34633861
Sr    1.9434040846232    1.9434040846232    1.9434039459060 
Sr    1.9434040846232    1.9434040846232    5.8302121431905 
Sr    1.9434040846232    1.9434040846232    9.6621688130631 
Sr    1.9434040846232    1.9434040846232   13.7400976044251 
Fe    0.0000000000000    0.0000000000000    0.0000000000000 
Fe    0.0000000000000    0.0000000000000    3.8868081972844 
Fe    0.0000000000000    0.0000000000000    7.7830386884881 
Fe    0.0000000000000    0.0000000000000   11.7350927200473 
 O    1.9434040846232    0.0000000000000   -0.0000000000000 
 O    1.9434040846232    0.0000000000000    3.8868081972844 
 O    1.9434040846232    0.0000000000000    7.8470919587991 
 O    1.9434040846232    0.0000000000000   12.1240762933988 
 O    0.0000000000000    1.9434040846232    0.0000000000000 
 O    0.0000000000000    1.9434040846232    3.8868081972844 
 O    0.0000000000000    1.9434040846232    7.8470919587991 
 O    0.0000000000000    1.9434040846232   12.1240762933988 
 O    0.0000000000000    0.0000000000000    1.9434039459060 
 O    0.0000000000000    0.0000000000000    5.8302121431905 
 O    0.0000000000000    0.0000000000000    9.8556656763706 
 O    0.0000000000000    0.0000000000000   14.3999101934398 
 O    0.0000000000000    0.0000000000000   15.8243670590978 
21
FORCE:  0.286029  ...  ENERGY:  -128.34551578
Sr    1.9434040846232    1.9434040846232    1.9434039459060 
Sr    1.9434040846232    1.9434040846232    5.8302121431905 
Sr    1.9434040846232    1.9434040846232    9.6621223812695 
Sr    1.9434040846232    1.9434040846232   13.7398657509291 
Fe    0.0000000000000    0.0000000000000    0.0000000000000 
Fe    0.0000000000000    0.0000000000000    3.8868081972844 
Fe    0.0000000000000    0.0000000000000    7.7830182218422 
Fe    0.0000000000000    0.0000000000000   11.7350300982203 
 O    1.9434040846232    0.0000000000000   -0.0000000000000 
 O    1.9434040846232    0.0000000000000    3.8868081972844 
 O    1.9434040846232    0.0000000000000    7.8470928752161 
 O    1.9434040846232    0.0000000000000   12.1241251689711 
 O    0.0000000000000    1.9434040846232    0.0000000000000 
 O    0.0000000000000    1.9434040846232    3.8868081972844 
 O    0.0000000000000    1.9434040846232    7.8470928752161 
 O    0.0000000000000    1.9434040846232   12.1241251689711 
 O    0.0000000000000    0.0000000000000    1.9434039459060 
 O    0.0000000000000    0.0000000000000    5.8302121431905 
 O    0.0000000000000    0.0000000000000    9.8556876703781 
 O    0.0000000000000    0.0000000000000   14.4003241084426 
 O    0.0000000000000    0.0000000000000   15.8241843866464 
21
FORCE:  0.253808  ...  ENERGY:  -128.34391823
Sr    1.9434040846232    1.9434040846232    1.9434039459060 
Sr    1.9434040846232    1.9434040846232    5.8302121431905 
Sr    1.9434040846232    1.9434040846232    9.6618178253597 
Sr    1.9434040846232    1.9434040846232   13.7383463315757 
Fe    0.0000000000000    0.0000000000000    0.0000000000000 
Fe    0.0000000000000    0.0000000000000    3.8868081972844 
Fe    0.0000000000000    0.0000000000000    7.7828825921291 
Fe    0.0000000000000    0.0000000000000   11.7346189324684 
 O    1.9434040846232    0.0000000000000   -0.0000000000000 
 O    1.9434040846232    0.0000000000000    3.8868081972844 
 O    1.9434040846232    0.0000000000000    7.8470977627733 
 O    1.9434040846232    0.0000000000000   12.1244456094418 
 O    0.0000000000000    1.9434040846232    0.0000000000000 
 O    0.0000000000000    1.9434040846232    3.8868081972844 
 O    0.0000000000000    1.9434040846232    7.8470977627733 
 O    0.0000000000000    1.9434040846232   12.1244456094418 
 O    0.0000000000000    0.0000000000000    1.9434039459060 
 O    0.0000000000000    0.0000000000000    5.8302121431905 
 O    0.0000000000000    0.0000000000000    9.8558321587887 
 O    0.0000000000000    0.0000000000000   14.4030360917596 
 O    0.0000000000000    0.0000000000000   15.8229887679594 
21
FORCE:  0.230844  ...  ENERGY:  -128.34531731
Sr    1.9434040846232    1.9434040846232    1.9434039459060 
Sr    1.9434040846232    1.9434040846232    5.8302121431905 
Sr    1.9434040846232    1.9434040846232    9.6616653946686 
Sr    1.9434040846232    1.9434040846232   13.7375866218990 
Fe    0.0000000000000    0.0000000000000    0.0000000000000 
Fe    0.0000000000000    0.0000000000000    3.8868081972844 
Fe    0.0000000000000    0.0000000000000    7.7828150827449 
Fe    0.0000000000000    0.0000000000000   11.7344133495925 
 O    1.9434040846232    0.0000000000000   -0.0000000000000 
 O    1.9434040846232    0.0000000000000    3.8868081972844 
 O    1.9434040846232    0.0000000000000    7.8471002065520 
 O    1.9434040846232    0.0000000000000   12.1246056769411 
 O    0.0000000000000    1.9434040846232    0.0000000000000 
 O    0.0000000000000    1.9434040846232    3.8868081972844 
 O    0.0000000000000    1.9434040846232    7.8471002065520 
 O    0.0000000000000    1.9434040846232   12.1246056769411 
 O    0.0000000000000    0.0000000000000    1.9434039459060 
 O    0.0000000000000    0.0000000000000    5.8302121431905 
 O    0.0000000000000    0.0000000000000    9.8559045557301 
 O    0.0000000000000    0.0000000000000   14.4043917779458 
 O    0.0000000000000    0.0000000000000   15.8223906531436 
21
FORCE:  0.252105  ...  ENERGY:  -128.34629242
Sr    1.9434040846232    1.9434040846232    1.9434039459060 
Sr    1.9434040846232    1.9434040846232    5.8302121431905 
Sr    1.9434040846232    1.9434040846232    9.6617344314145 
Sr    1.9434040846232    1.9434040846232   13.7379308892113 
Fe    0.0000000000000    0.0000000000000    0.0000000000000 
Fe    0.0000000000000    0.0000000000000    3.8868081972844 
Fe    0.0000000000000    0.0000000000000    7.7828456299775 
Fe    0.0000000000000    0.0000000000000   11.7345065186522 
 O    1.9434040846232    0.0000000000000   -0.0000000000000 
 O    1.9434040846232    0.0000000000000    3.8868081972844 
 O    1.9434040846232    0.0000000000000    7.8470989846626 
 O    1.9434040846232    0.0000000000000   12.1245329745273 
 O    0.0000000000000    1.9434040846232    0.0000000000000 
 O    0.0000000000000    1.9434040846232    3.8868081972844 
 O    0.0000000000000    1.9434040846232    7.8470989846626 
 O    0.0000000000000    1.9434040846232   12.1245329745273 
 O    0.0000000000000    0.0000000000000    1.9434039459060 
 O    0.0000000000000    0.0000000000000    5.8302121431905 
 O    0.0000000000000    0.0000000000000    9.8558715647188 
 O    0.0000000000000    0.0000000000000   14.4037777785690 
 O    0.0000000000000    0.0000000000000   15.8226616070974 
21
FORCE:  0.299273  ...  ENERGY:  -128.34526837
Sr    1.9434040846232    1.9434040846232    1.9434039459060 
Sr    1.9434040846232    1.9434040846232    5.8302121431905 
Sr    1.9434040846232    1.9434040846232    9.6617799467911 
Sr    1.9434040846232    1.9434040846232   13.7381584660947 
Fe    0.0000000000000    0.0000000000000    0.0000000000000 
Fe    0.0000000000000    0.0000000000000    3.8868081972844 
Fe    0.0000000000000    0.0000000000000    7.7828657911511 
Fe    0.0000000000000    0.0000000000000   11.7345682240622 
 O    1.9434040846232    0.0000000000000   -0.0000000000000 
 O    1.9434040846232    0.0000000000000    3.8868081972844 
 O    1.9434040846232    0.0000000000000    7.8470983737180 
 O    1.9434040846232    0.0000000000000   12.1244850153720 
 O    0.0000000000000    1.9434040846232    0.0000000000000 
 O    0.0000000000000    1.9434040846232    3.8868081972844 
 O    0.0000000000000    1.9434040846232    7.8470983737180 
 O    0.0000000000000    1.9434040846232   12.1244850153720 
 O    0.0000000000000    0.0000000000000    1.9434039459060 
 O    0.0000000000000    0.0000000000000    5.8302121431905 
 O    0.0000000000000    0.0000000000000    9.8558501816560 
 O    0.0000000000000    0.0000000000000   14.4033715003744 
 O    0.0000000000000    0.0000000000000   15.8228406138809 
21
FORCE:  0.320276  ...  ENERGY:  -128.34077080
Sr    1.9434040846232    1.9434040846232    1.9434039459060 
Sr    1.9434040846232    1.9434040846232    5.8302121431905 
Sr    1.9434040846232    1.9434040846232    9.6618065228836 
Sr    1.9434040846232    1.9434040846232   13.7382910410846 
Fe    0.0000000000000    0.0000000000000    0.0000000000000 
Fe    0.0000000000000    0.0000000000000    3.8868081972844 
Fe    0.0000000000000    0.0000000000000    7.7828777045719 
Fe    0.0000000000000    0.0000000000000   11.7346039643244 
 O    1.9434040846232    0.0000000000000   -0.0000000000000 
 O    1.9434040846232    0.0000000000000    3.8868081972844 
 O    1.9434040846232    0.0000000000000    7.8470977627733 
 O    1.9434040846232    0.0000000000000   12.1244572173903 
 O    0.0000000000000    1.9434040846232    0.0000000000000 
 O    0.0000000000000    1.9434040846232    3.8868081972844 
 O    0.0000000000000    1.9434040846232    7.8470977627733 
 O    0.0000000000000    1.9434040846232   12.1244572173903 
 O    0.0000000000000    0.0000000000000    1.9434039459060 
 O    0.0000000000000    0.0000000000000    5.8302121431905 
 O    0.0000000000000    0.0000000000000    9.8558373518182 
 O    0.0000000000000    0.0000000000000   14.4031350647935 
 O    0.0000000000000    0.0000000000000   15.8229450854167 
21
FORCE:  0.305200  ...  ENERGY:  -128.34542433
Sr    1.9434040846232    1.9434040846232    1.9434039459060 
Sr    1.9434040846232    1.9434040846232    5.8302121431905 
Sr    1.9434040846232    1.9434040846232    9.6618147706364 
Sr    1.9434040846232    1.9434040846232   13.7383325853210 
Fe    0.0000000000000    0.0000000000000    0.0000000000000 
Fe    0.0000000000000    0.0000000000000    3.8868081972844 
Fe    0.0000000000000    0.0000000000000    7.7828813702398 
Fe    0.0000000000000    0.0000000000000   11.7346152668005 
 O    1.9434040846232    0.0000000000000   -0.0000000000000 
 O    1.9434040846232    0.0000000000000    3.8868081972844 
 O    1.9434040846232    0.0000000000000    7.8470977627733 
 O    1.9434040846232    0.0000000000000   12.1244483586928 
 O    0.0000000000000    1.9434040846232    0.0000000000000 
 O    0.0000000000000    1.9434040846232    3.8868081972844 
 O    0.0000000000000    1.9434040846232    7.8470977627733 
 O    0.0000000000000    1.9434040846232   12.1244483586928 
 O    0.0000000000000    0.0000000000000    1.9434039459060 
 O    0.0000000000000    0.0000000000000    5.8302121431905 
 O    0.0000000000000    0.0000000000000    9.8558333806780 
 O    0.0000000000000    0.0000000000000   14.4030611404904 
 O    0.0000000000000    0.0000000000000   15.8229777709556 
21
FORCE:  0.228591  ...  ENERGY:  -128.34552815
Sr    1.9434040846232    1.9434040846232    1.9434039459060 
Sr    1.9434040846232    1.9434040846232    5.8302121431905 
Sr    1.9434040846232    1.9434040846232    9.6618169089427 
Sr    1.9434040846232    1.9434040846232   13.7383423604355 
Fe    0.0000000000000    0.0000000000000    0.0000000000000 
Fe    0.0000000000000    0.0000000000000    3.8868081972844 
Fe    0.0000000000000    0.0000000000000    7.7828822866568 
Fe    0.0000000000000    0.0000000000000   11.7346177105791 
 O    1.9434040846232    0.0000000000000   -0.0000000000000 
 O    1.9434040846232    0.0000000000000    3.8868081972844 
 O    1.9434040846232    0.0000000000000    7.8470977627733 
 O    1.9434040846232    0.0000000000000   12.1244462203865 
 O    0.0000000000000    1.9434040846232    0.0000000000000 
 O    0.0000000000000    1.9434040846232    3.8868081972844 
 O    0.0000000000000    1.9434040846232    7.8470977627733 
 O    0.0000000000000    1.9434040846232   12.1244462203865 
 O    0.0000000000000    0.0000000000000    1.9434039459060 
 O    0.0000000000000    0.0000000000000    5.8302121431905 
 O    0.0000000000000    0.0000000000000    9.8558324642610 
 O    0.0000000000000    0.0000000000000   14.4030434230955 
 O    0.0000000000000    0.0000000000000   15.8229854077638 
21
FORCE:  0.293040  ...  ENERGY:  -128.34576904
Sr    1.9434040846232    1.9434040846232    1.9434039459060 
Sr    1.9434040846232    1.9434040846232    5.8302121431905 
Sr    1.9434040846232    1.9434040846232    9.6618159925257 
Sr    1.9434040846232    1.9434040846232   13.7383374728782 
Fe    0.0000000000000    0.0000000000000    0.0000000000000 
Fe    0.0000000000000    0.0000000000000    3.8868081972844 
Fe    0.0000000000000    0.0000000000000    7.7828819811844 
Fe    0.0000000000000    0.0000000000000   11.7346164886898 
 O    1.9434040846232    0.0000000000000   -0.0000000000000 
 O    1.9434040846232    0.0000000000000    3.8868081972844 
 O    1.9434040846232    0.0000000000000    7.8470977627733 
 O    1.9434040846232    0.0000000000000   12.1244474422758 
 O    0.0000000000000    1.9434040846232    0.0000000000000 
 O    0.0000000000000    1.9434040846232    3.8868081972844 
 O    0.0000000000000    1.9434040846232    7.8470977627733 
 O    0.0000000000000    1.9434040846232   12.1244474422758 
 O    0.0000000000000    0.0000000000000    1.9434039459060 
 O    0.0000000000000    0.0000000000000    5.8302121431905 
 O    0.0000000000000    0.0000000000000    9.8558330752057 
 O    0.0000000000000    0.0000000000000   14.4030522817929 
 O    0.0000000000000    0.0000000000000   15.8229814366235 
21
FORCE:  0.248458  ...  ENERGY:  -128.34587268
Sr    1.9434040846232    1.9434040846232    1.9434039459060 
Sr    1.9434040846232    1.9434040846232    5.8302121431905 
Sr    1.9434040846232    1.9434040846232    9.6618166034704 
Sr    1.9434040846232    1.9434040846232   13.7383411385461 
Fe    0.0000000000000    0.0000000000000    0.0000000000000 
Fe    0.0000000000000    0.0000000000000    3.8868081972844 
Fe    0.0000000000000    0.0000000000000    7.7828822866568 
Fe    0.0000000000000    0.0000000000000   11.7346174051068 
 O    1.9434040846232    0.0000000000000   -0.0000000000000 
 O    1.9434040846232    0.0000000000000    3.8868081972844 
 O    1.9434040846232    0.0000000000000    7.8470977627733 
 O    1.9434040846232    0.0000000000000   12.1244465258588 
 O    0.0000000000000    1.9434040846232    0.0000000000000 
 O    0.0000000000000    1.9434040846232    3.8868081972844 
 O    0.0000000000000    1.9434040846232    7.8470977627733 
 O    0.0000000000000    1.9434040846232   12.1244465258588 
 O    0.0000000000000    0.0000000000000    1.9434039459060 
 O    0.0000000000000    0.0000000000000    5.8302121431905 
 O    0.0000000000000    0.0000000000000    9.8558327697333 
 O    0.0000000000000    0.0000000000000   14.4030455614018 
 O    0.0000000000000    0.0000000000000   15.8229844913468 
21
FORCE:  0.295578  ...  ENERGY:  -128.34572795
Sr    1.9434040846232    1.9434040846232    1.9434039459060 
Sr    1.9434040846232    1.9434040846232    5.8302121431905 
Sr    1.9434040846232    1.9434040846232    9.6618162979980 
Sr    1.9434040846232    1.9434040846232   13.7383393057122 
Fe    0.0000000000000    0.0000000000000    0.0000000000000 
Fe    0.0000000000000    0.0000000000000    3.8868081972844 
Fe    0.0000000000000    0.0000000000000    7.7828819811844 
Fe    0.0000000000000    0.0000000000000   11.7346170996345 
 O    1.9434040846232    0.0000000000000   -0.0000000000000 
 O    1.9434040846232    0.0000000000000    3.8868081972844 
 O    1.9434040846232    0.0000000000000    7.8470977627733 
 O    1.9434040846232    0.0000000000000   12.1244471368035 
 O    0.0000000000000    1.9434040846232    0.0000000000000 
 O    0.0000000000000    1.9434040846232    3.8868081972844 
 O    0.0000000000000    1.9434040846232    7.8470977627733 
 O    0.0000000000000    1.9434040846232   12.1244471368035 
 O    0.0000000000000    0.0000000000000    1.9434039459060 
 O    0.0000000000000    0.0000000000000    5.8302121431905 
 O    0.0000000000000    0.0000000000000    9.8558327697333 
 O    0.0000000000000    0.0000000000000   14.4030489215973 
 O    0.0000000000000    0.0000000000000   15.8229829639852 
21
FORCE:  0.250428  ...  ENERGY:  -128.34609520
Sr    1.9434040846232    1.9434040846232    1.9434039459060 
Sr    1.9434040846232    1.9434040846232    5.8302121431905 
Sr    1.9434040846232    1.9434040846232    9.6618166034704 
Sr    1.9434040846232    1.9434040846232   13.7383405276015 
Fe    0.0000000000000    0.0000000000000    0.0000000000000 
Fe    0.0000000000000    0.0000000000000    3.8868081972844 
Fe    0.0000000000000    0.0000000000000    7.7828822866568 
Fe    0.0000000000000    0.0000000000000   11.7346174051068 
 O    1.9434040846232    0.0000000000000   -0.0000000000000 
 O    1.9434040846232    0.0000000000000    3.8868081972844 
 O    1.9434040846232    0.0000000000000    7.8470977627733 
 O    1.9434040846232    0.0000000000000   12.1244468313311 
 O    0.0000000000000    1.9434040846232    0.0000000000000 
 O    0.0000000000000    1.9434040846232    3.8868081972844 
 O    0.0000000000000    1.9434040846232    7.8470977627733 
 O    0.0000000000000    1.9434040846232   12.1244468313311 
 O    0.0000000000000    0.0000000000000    1.9434039459060 
 O    0.0000000000000    0.0000000000000    5.8302121431905 
 O    0.0000000000000    0.0000000000000    9.8558327697333 
 O    0.0000000000000    0.0000000000000   14.4030464778187 
 O    0.0000000000000    0.0000000000000   15.8229838804022 
21
FORCE:  0.277623  ...  ENERGY:  -128.34629822
Sr    1.9434040846232    1.9434040846232    1.9434039459060 
Sr    1.9434040846232    1.9434040846232    5.8302121431905 
Sr    1.9434040846232    1.9434040846232    9.6618166034704 
Sr    1.9434040846232    1.9434040846232   13.7383408330738 
Fe    0.0000000000000    0.0000000000000    0.0000000000000 
Fe    0.0000000000000    0.0000000000000    3.8868081972844 
Fe    0.0000000000000    0.0000000000000    7.7828822866568 
Fe    0.0000000000000    0.0000000000000   11.7346174051068 
 O    1.9434040846232    0.0000000000000   -0.0000000000000 
 O    1.9434040846232    0.0000000000000    3.8868081972844 
 O    1.9434040846232    0.0000000000000    7.8470977627733 
 O    1.9434040846232    0.0000000000000   12.1244465258588 
 O    0.0000000000000    1.9434040846232    0.0000000000000 
 O    0.0000000000000    1.9434040846232    3.8868081972844 
 O    0.0000000000000    1.9434040846232    7.8470977627733 
 O    0.0000000000000    1.9434040846232   12.1244465258588 
 O    0.0000000000000    0.0000000000000    1.9434039459060 
 O    0.0000000000000    0.0000000000000    5.8302121431905 
 O    0.0000000000000    0.0000000000000    9.8558327697333 
 O    0.0000000000000    0.0000000000000   14.4030458668741 
 O    0.0000000000000    0.0000000000000   15.8229841858745 
21
FORCE:  0.291756  ...  ENERGY:  -128.34616944
Sr    1.9434040846232    1.9434040846232    1.9434039459060 
Sr    1.9434040846232    1.9434040846232    5.8302121431905 
Sr    1.9434040846232    1.9434040846232    9.6618166034704 
Sr    1.9434040846232    1.9434040846232   13.7383411385461 
Fe    0.0000000000000    0.0000000000000    0.0000000000000 
Fe    0.0000000000000    0.0000000000000    3.8868081972844 
Fe    0.0000000000000    0.0000000000000    7.7828822866568 
Fe    0.0000000000000    0.0000000000000   11.7346174051068 
 O    1.9434040846232    0.0000000000000   -0.0000000000000 
 O    1.9434040846232    0.0000000000000    3.8868081972844 
 O    1.9434040846232    0.0000000000000    7.8470977627733 
 O    1.9434040846232    0.0000000000000   12.1244465258588 
 O    0.0000000000000    1.9434040846232    0.0000000000000 
 O    0.0000000000000    1.9434040846232    3.8868081972844 
 O    0.0000000000000    1.9434040846232    7.8470977627733 
 O    0.0000000000000    1.9434040846232   12.1244465258588 
 O    0.0000000000000    0.0000000000000    1.9434039459060 
 O    0.0000000000000    0.0000000000000    5.8302121431905 
 O    0.0000000000000    0.0000000000000    9.8558327697333 
 O    0.0000000000000    0.0000000000000   14.4030458668741 
 O    0.0000000000000    0.0000000000000   15.8229844913468 
21
FORCE:  0.268265  ...  ENERGY:  -128.34310717
Sr    1.9434040846232    1.9434040846232    1.9434039459060 
Sr    1.9434040846232    1.9434040846232    5.8302121431905 
Sr    1.9434040846232    1.9434040846232    9.6618166034704 
Sr    1.9434040846232    1.9434040846232   13.7383408330738 
Fe    0.0000000000000    0.0000000000000    0.0000000000000 
Fe    0.0000000000000    0.0000000000000    3.8868081972844 
Fe    0.0000000000000    0.0000000000000    7.7828822866568 
Fe    0.0000000000000    0.0000000000000   11.7346174051068 
 O    1.9434040846232    0.0000000000000   -0.0000000000000 
 O    1.9434040846232    0.0000000000000    3.8868081972844 
 O    1.9434040846232    0.0000000000000    7.8470977627733 
 O    1.9434040846232    0.0000000000000   12.1244465258588 
 O    0.0000000000000    1.9434040846232    0.0000000000000 
 O    0.0000000000000    1.9434040846232    3.8868081972844 
 O    0.0000000000000    1.9434040846232    7.8470977627733 
 O    0.0000000000000    1.9434040846232   12.1244465258588 
 O    0.0000000000000    0.0000000000000    1.9434039459060 
 O    0.0000000000000    0.0000000000000    5.8302121431905 
 O    0.0000000000000    0.0000000000000    9.8558327697333 
 O    0.0000000000000    0.0000000000000   14.4030458668741 
 O    0.0000000000000    0.0000000000000   15.8229841858745 
