21
FORCE:  0.250317  ...  ENERGY:  -128.54887091
Sr    1.9434040846232    1.9434040846232    1.9434039459060 
Sr    1.9434040846232    1.9434040846232    5.8302121431905 
Sr    1.9434040846232    1.9434040846232    9.6923583376455 
Sr    1.9434040846232    1.9434040846232   13.7820783608207 
Fe    0.0000000000000    0.0000000000000    0.0000000000000 
Fe    0.0000000000000    0.0000000000000    3.8868081972844 
Fe    0.0000000000000    0.0000000000000    7.7910784146563 
Fe    0.0000000000000    0.0000000000000   11.7383337814343 
 O    1.9434040846232    0.0000000000000   -0.0000000000000 
 O    1.9434040846232    0.0000000000000    3.8868081972844 
 O    1.9434040846232    0.0000000000000    7.8437317632047 
 O    1.9434040846232    0.0000000000000   12.1074317172577 
 O    0.0000000000000    1.9434040846232    0.0000000000000 
 O    0.0000000000000    1.9434040846232    3.8868081972844 
 O    0.0000000000000    1.9434040846232    7.8437317632047 
 O    0.0000000000000    1.9434040846232   12.1074317172577 
 O    0.0000000000000    0.0000000000000    1.9434039459060 
 O    0.0000000000000    0.0000000000000    5.8302121431905 
 O    0.0000000000000    0.0000000000000    9.8500746163737 
 O    0.0000000000000    0.0000000000000   14.3448078732477 
 O    0.0000000000000    0.0000000000000   15.7676555106883 
21
FORCE:  0.461781  ...  ENERGY:  -128.55271251
Sr    1.9434040846232    1.9434040846232    1.9434039459060 
Sr    1.9434040846232    1.9434040846232    5.8302121431905 
Sr    1.9434040846232    1.9434040846232    9.6910875727661 
Sr    1.9434040846232    1.9434040846232   13.7700024287989 
Fe    0.0000000000000    0.0000000000000    0.0000000000000 
Fe    0.0000000000000    0.0000000000000    3.8868081972844 
Fe    0.0000000000000    0.0000000000000    7.7889104775532 
Fe    0.0000000000000    0.0000000000000   11.7371158632675 
 O    1.9434040846232    0.0000000000000   -0.0000000000000 
 O    1.9434040846232    0.0000000000000    3.8868081972844 
 O    1.9434040846232    0.0000000000000    7.8449524306224 
 O    1.9434040846232    0.0000000000000   12.1117501795413 
 O    0.0000000000000    1.9434040846232    0.0000000000000 
 O    0.0000000000000    1.9434040846232    3.8868081972844 
 O    0.0000000000000    1.9434040846232    7.8449524306224 
 O    0.0000000000000    1.9434040846232   12.1117501795413 
 O    0.0000000000000    0.0000000000000    1.9434039459060 
 O    0.0000000000000    0.0000000000000    5.8302121431905 
 O    0.0000000000000    0.0000000000000    9.8536877430548 
 O    0.0000000000000    0.0000000000000   14.3407148495413 
 O    0.0000000000000    0.0000000000000   15.7731925020833 
21
FORCE:  0.519662  ...  ENERGY:  -128.55323830
Sr    1.9434040846232    1.9434040846232    1.9434039459060 
Sr    1.9434040846232    1.9434040846232    5.8302121431905 
Sr    1.9434040846232    1.9434040846232    9.6912500840439 
Sr    1.9434040846232    1.9434040846232   13.7715468968830 
Fe    0.0000000000000    0.0000000000000    0.0000000000000 
Fe    0.0000000000000    0.0000000000000    3.8868081972844 
Fe    0.0000000000000    0.0000000000000    7.7891875409536 
Fe    0.0000000000000    0.0000000000000   11.7372716541541 
 O    1.9434040846232    0.0000000000000   -0.0000000000000 
 O    1.9434040846232    0.0000000000000    3.8868081972844 
 O    1.9434040846232    0.0000000000000    7.8447963342635 
 O    1.9434040846232    0.0000000000000   12.1111978855745 
 O    0.0000000000000    1.9434040846232    0.0000000000000 
 O    0.0000000000000    1.9434040846232    3.8868081972844 
 O    0.0000000000000    1.9434040846232    7.8447963342635 
 O    0.0000000000000    1.9434040846232   12.1111978855745 
 O    0.0000000000000    0.0000000000000    1.9434039459060 
 O    0.0000000000000    0.0000000000000    5.8302121431905 
 O    0.0000000000000    0.0000000000000    9.8532255634244 
 O    0.0000000000000    0.0000000000000   14.3412384291094 
 O    0.0000000000000    0.0000000000000   15.7724844172299 
21
FORCE:  0.457940  ...  ENERGY:  -128.55396568
Sr    1.9434040846232    1.9434040846232    1.9434039459060 
Sr    1.9434040846232    1.9434040846232    5.8302121431905 
Sr    1.9434040846232    1.9434040846232    9.6909528594700 
Sr    1.9434040846232    1.9434040846232   13.7688129195584 
Fe    0.0000000000000    0.0000000000000    0.0000000000000 
Fe    0.0000000000000    0.0000000000000    3.8868081972844 
Fe    0.0000000000000    0.0000000000000    7.7887372747440 
Fe    0.0000000000000    0.0000000000000   11.7370941747323 
 O    1.9434040846232    0.0000000000000   -0.0000000000000 
 O    1.9434040846232    0.0000000000000    3.8868081972844 
 O    1.9434040846232    0.0000000000000    7.8450795071104 
 O    1.9434040846232    0.0000000000000   12.1120880319347 
 O    0.0000000000000    1.9434040846232    0.0000000000000 
 O    0.0000000000000    1.9434040846232    3.8868081972844 
 O    0.0000000000000    1.9434040846232    7.8450795071104 
 O    0.0000000000000    1.9434040846232   12.1120880319347 
 O    0.0000000000000    0.0000000000000    1.9434039459060 
 O    0.0000000000000    0.0000000000000    5.8302121431905 
 O    0.0000000000000    0.0000000000000    9.8539290661929 
 O    0.0000000000000    0.0000000000000   14.3415020517274 
 O    0.0000000000000    0.0000000000000   15.7727620915749 
21
FORCE:  0.600336  ...  ENERGY:  -128.55592185
Sr    1.9434040846232    1.9434040846232    1.9434039459060 
Sr    1.9434040846232    1.9434040846232    5.8302121431905 
Sr    1.9434040846232    1.9434040846232    9.6900608802758 
Sr    1.9434040846232    1.9434040846232   13.7606106821123 
Fe    0.0000000000000    0.0000000000000    0.0000000000000 
Fe    0.0000000000000    0.0000000000000    3.8868081972844 
Fe    0.0000000000000    0.0000000000000    7.7873861706427 
Fe    0.0000000000000    0.0000000000000   11.7365623474114 
 O    1.9434040846232    0.0000000000000   -0.0000000000000 
 O    1.9434040846232    0.0000000000000    3.8868081972844 
 O    1.9434040846232    0.0000000000000    7.8459293311234 
 O    1.9434040846232    0.0000000000000   12.1147584710153 
 O    0.0000000000000    1.9434040846232    0.0000000000000 
 O    0.0000000000000    1.9434040846232    3.8868081972844 
 O    0.0000000000000    1.9434040846232    7.8459293311234 
 O    0.0000000000000    1.9434040846232   12.1147584710153 
 O    0.0000000000000    0.0000000000000    1.9434039459060 
 O    0.0000000000000    0.0000000000000    5.8302121431905 
 O    0.0000000000000    0.0000000000000    9.8560389635539 
 O    0.0000000000000    0.0000000000000   14.3422932250538 
 O    0.0000000000000    0.0000000000000   15.7735957255547 
21
FORCE:  0.573385  ...  ENERGY:  -128.55673832
Sr    1.9434040846232    1.9434040846232    1.9434039459060 
Sr    1.9434040846232    1.9434040846232    5.8302121431905 
Sr    1.9434040846232    1.9434040846232    9.6882772273598 
Sr    1.9434040846232    1.9434040846232   13.7442059017478 
Fe    0.0000000000000    0.0000000000000    0.0000000000000 
Fe    0.0000000000000    0.0000000000000    3.8868081972844 
Fe    0.0000000000000    0.0000000000000    7.7846839624400 
Fe    0.0000000000000    0.0000000000000   11.7354983872972 
 O    1.9434040846232    0.0000000000000   -0.0000000000000 
 O    1.9434040846232    0.0000000000000    3.8868081972844 
 O    1.9434040846232    0.0000000000000    7.8476292846219 
 O    1.9434040846232    0.0000000000000   12.1200993491766 
 O    0.0000000000000    1.9434040846232    0.0000000000000 
 O    0.0000000000000    1.9434040846232    3.8868081972844 
 O    0.0000000000000    1.9434040846232    7.8476292846219 
 O    0.0000000000000    1.9434040846232   12.1200993491766 
 O    0.0000000000000    0.0000000000000    1.9434039459060 
 O    0.0000000000000    0.0000000000000    5.8302121431905 
 O    0.0000000000000    0.0000000000000    9.8602587582759 
 O    0.0000000000000    0.0000000000000   14.3438749607618 
 O    0.0000000000000    0.0000000000000   15.7752629935142 
21
FORCE:  0.368244  ...  ENERGY:  -128.55916888
Sr    1.9434040846232    1.9434040846232    1.9434039459060 
Sr    1.9434040846232    1.9434040846232    5.8302121431905 
Sr    1.9434040846232    1.9434040846232    9.6877542587364 
Sr    1.9434040846232    1.9434040846232   13.7426281371800 
Fe    0.0000000000000    0.0000000000000    0.0000000000000 
Fe    0.0000000000000    0.0000000000000    3.8868081972844 
Fe    0.0000000000000    0.0000000000000    7.7846347813954 
Fe    0.0000000000000    0.0000000000000   11.7359993619131 
 O    1.9434040846232    0.0000000000000   -0.0000000000000 
 O    1.9434040846232    0.0000000000000    3.8868081972844 
 O    1.9434040846232    0.0000000000000    7.8478877142104 
 O    1.9434040846232    0.0000000000000   12.1202896584361 
 O    0.0000000000000    1.9434040846232    0.0000000000000 
 O    0.0000000000000    1.9434040846232    3.8868081972844 
 O    0.0000000000000    1.9434040846232    7.8478877142104 
 O    0.0000000000000    1.9434040846232   12.1202896584361 
 O    0.0000000000000    0.0000000000000    1.9434039459060 
 O    0.0000000000000    0.0000000000000    5.8302121431905 
 O    0.0000000000000    0.0000000000000    9.8601680329948 
 O    0.0000000000000    0.0000000000000   14.3471923902305 
 O    0.0000000000000    0.0000000000000   15.7728577044132 
21
FORCE:  0.117984  ...  ENERGY:  -128.55893509
Sr    1.9434040846232    1.9434040846232    1.9434039459060 
Sr    1.9434040846232    1.9434040846232    5.8302121431905 
Sr    1.9434040846232    1.9434040846232    9.6868815242988 
Sr    1.9434040846232    1.9434040846232   13.7399952711956 
Fe    0.0000000000000    0.0000000000000    0.0000000000000 
Fe    0.0000000000000    0.0000000000000    3.8868081972844 
Fe    0.0000000000000    0.0000000000000    7.7845526093395 
Fe    0.0000000000000    0.0000000000000   11.7368354396715 
 O    1.9434040846232    0.0000000000000   -0.0000000000000 
 O    1.9434040846232    0.0000000000000    3.8868081972844 
 O    1.9434040846232    0.0000000000000    7.8483190411358 
 O    1.9434040846232    0.0000000000000   12.1206076551283 
 O    0.0000000000000    1.9434040846232    0.0000000000000 
 O    0.0000000000000    1.9434040846232    3.8868081972844 
 O    0.0000000000000    1.9434040846232    7.8483190411358 
 O    0.0000000000000    1.9434040846232   12.1206076551283 
 O    0.0000000000000    0.0000000000000    1.9434039459060 
 O    0.0000000000000    0.0000000000000    5.8302121431905 
 O    0.0000000000000    0.0000000000000    9.8600168241931 
 O    0.0000000000000    0.0000000000000   14.3527281597362 
 O    0.0000000000000    0.0000000000000   15.7688437980394 
21
FORCE:  0.103124  ...  ENERGY:  -128.55949101
Sr    1.9434040846232    1.9434040846232    1.9434039459060 
Sr    1.9434040846232    1.9434040846232    5.8302121431905 
Sr    1.9434040846232    1.9434040846232    9.6869798863880 
Sr    1.9434040846232    1.9434040846232   13.7402912738802 
Fe    0.0000000000000    0.0000000000000    0.0000000000000 
Fe    0.0000000000000    0.0000000000000    3.8868081972844 
Fe    0.0000000000000    0.0000000000000    7.7845617735093 
Fe    0.0000000000000    0.0000000000000   11.7367413541948 
 O    1.9434040846232    0.0000000000000   -0.0000000000000 
 O    1.9434040846232    0.0000000000000    3.8868081972844 
 O    1.9434040846232    0.0000000000000    7.8482704710358 
 O    1.9434040846232    0.0000000000000   12.1205719148661 
 O    0.0000000000000    1.9434040846232    0.0000000000000 
 O    0.0000000000000    1.9434040846232    3.8868081972844 
 O    0.0000000000000    1.9434040846232    7.8482704710358 
 O    0.0000000000000    1.9434040846232   12.1205719148661 
 O    0.0000000000000    0.0000000000000    1.9434039459060 
 O    0.0000000000000    0.0000000000000    5.8302121431905 
 O    0.0000000000000    0.0000000000000    9.8600336251711 
 O    0.0000000000000    0.0000000000000   14.3521056071343 
 O    0.0000000000000    0.0000000000000   15.7692952861384 
21
FORCE:  0.202236  ...  ENERGY:  -128.56078838
Sr    1.9434040846232    1.9434040846232    1.9434039459060 
Sr    1.9434040846232    1.9434040846232    5.8302121431905 
Sr    1.9434040846232    1.9434040846232    9.6873669198260 
Sr    1.9434040846232    1.9434040846232   13.7414597055301 
Fe    0.0000000000000    0.0000000000000    0.0000000000000 
Fe    0.0000000000000    0.0000000000000    3.8868081972844 
Fe    0.0000000000000    0.0000000000000    7.7845981247162 
Fe    0.0000000000000    0.0000000000000   11.7363705107901 
 O    1.9434040846232    0.0000000000000   -0.0000000000000 
 O    1.9434040846232    0.0000000000000    3.8868081972844 
 O    1.9434040846232    0.0000000000000    7.8480792453593 
 O    1.9434040846232    0.0000000000000   12.1204307866511 
 O    0.0000000000000    1.9434040846232    0.0000000000000 
 O    0.0000000000000    1.9434040846232    3.8868081972844 
 O    0.0000000000000    1.9434040846232    7.8480792453593 
 O    0.0000000000000    1.9434040846232   12.1204307866511 
 O    0.0000000000000    0.0000000000000    1.9434039459060 
 O    0.0000000000000    0.0000000000000    5.8302121431905 
 O    0.0000000000000    0.0000000000000    9.8601008290830 
 O    0.0000000000000    0.0000000000000   14.3496489986824 
 O    0.0000000000000    0.0000000000000   15.7710764952758 
21
FORCE:  0.220853  ...  ENERGY:  -128.56021840
Sr    1.9434040846232    1.9434040846232    1.9434039459060 
Sr    1.9434040846232    1.9434040846232    5.8302121431905 
Sr    1.9434040846232    1.9434040846232    9.6870501450232 
Sr    1.9434040846232    1.9434040846232   13.7405032716750 
Fe    0.0000000000000    0.0000000000000    0.0000000000000 
Fe    0.0000000000000    0.0000000000000    3.8868081972844 
Fe    0.0000000000000    0.0000000000000    7.7845684939005 
Fe    0.0000000000000    0.0000000000000   11.7366741502830 
 O    1.9434040846232    0.0000000000000   -0.0000000000000 
 O    1.9434040846232    0.0000000000000    3.8868081972844 
 O    1.9434040846232    0.0000000000000    7.8482356471906 
 O    1.9434040846232    0.0000000000000   12.1205462551906 
 O    0.0000000000000    1.9434040846232    0.0000000000000 
 O    0.0000000000000    1.9434040846232    3.8868081972844 
 O    0.0000000000000    1.9434040846232    7.8482356471906 
 O    0.0000000000000    1.9434040846232   12.1205462551906 
 O    0.0000000000000    0.0000000000000    1.9434039459060 
 O    0.0000000000000    0.0000000000000    5.8302121431905 
 O    0.0000000000000    0.0000000000000    9.8600458440641 
 O    0.0000000000000    0.0000000000000   14.3516596175372 
 O    0.0000000000000    0.0000000000000   15.7696184758601 
21
FORCE:  0.130449  ...  ENERGY:  -128.56201569
Sr    1.9434040846232    1.9434040846232    1.9434039459060 
Sr    1.9434040846232    1.9434040846232    5.8302121431905 
Sr    1.9434040846232    1.9434040846232    9.6869924107534 
Sr    1.9434040846232    1.9434040846232   13.7403297633934 
Fe    0.0000000000000    0.0000000000000    0.0000000000000 
Fe    0.0000000000000    0.0000000000000    3.8868081972844 
Fe    0.0000000000000    0.0000000000000    7.7845629953986 
Fe    0.0000000000000    0.0000000000000   11.7367291353018 
 O    1.9434040846232    0.0000000000000   -0.0000000000000 
 O    1.9434040846232    0.0000000000000    3.8868081972844 
 O    1.9434040846232    0.0000000000000    7.8482640561169 
 O    1.9434040846232    0.0000000000000   12.1205673327812 
 O    0.0000000000000    1.9434040846232    0.0000000000000 
 O    0.0000000000000    1.9434040846232    3.8868081972844 
 O    0.0000000000000    1.9434040846232    7.8482640561169 
 O    0.0000000000000    1.9434040846232   12.1205673327812 
 O    0.0000000000000    0.0000000000000    1.9434039459060 
 O    0.0000000000000    0.0000000000000    5.8302121431905 
 O    0.0000000000000    0.0000000000000    9.8600360689497 
 O    0.0000000000000    0.0000000000000   14.3520243514953 
 O    0.0000000000000    0.0000000000000   15.7693539368251 
21
FORCE:  0.334231  ...  ENERGY:  -128.56391753
Sr    1.9434040846232    1.9434040846232    1.9434039459060 
Sr    1.9434040846232    1.9434040846232    5.8302121431905 
Sr    1.9434040846232    1.9434040846232    9.6869835520559 
Sr    1.9434040846232    1.9434040846232   13.7403028818287 
Fe    0.0000000000000    0.0000000000000    0.0000000000000 
Fe    0.0000000000000    0.0000000000000    3.8868081972844 
Fe    0.0000000000000    0.0000000000000    7.7845620789817 
Fe    0.0000000000000    0.0000000000000   11.7367376885269 
 O    1.9434040846232    0.0000000000000   -0.0000000000000 
 O    1.9434040846232    0.0000000000000    3.8868081972844 
 O    1.9434040846232    0.0000000000000    7.8482686382018 
 O    1.9434040846232    0.0000000000000   12.1205703875044 
 O    0.0000000000000    1.9434040846232    0.0000000000000 
 O    0.0000000000000    1.9434040846232    3.8868081972844 
 O    0.0000000000000    1.9434040846232    7.8482686382018 
 O    0.0000000000000    1.9434040846232   12.1205703875044 
 O    0.0000000000000    0.0000000000000    1.9434039459060 
 O    0.0000000000000    0.0000000000000    5.8302121431905 
 O    0.0000000000000    0.0000000000000    9.8600345415880 
 O    0.0000000000000    0.0000000000000   14.3520814748204 
 O    0.0000000000000    0.0000000000000   15.7693126980610 
21
FORCE:  0.294288  ...  ENERGY:  -128.56311233
Sr    1.9434040846232    1.9434040846232    1.9434039459060 
Sr    1.9434040846232    1.9434040846232    5.8302121431905 
Sr    1.9434040846232    1.9434040846232    9.6869801918604 
Sr    1.9434040846232    1.9434040846232   13.7402928012419 
Fe    0.0000000000000    0.0000000000000    0.0000000000000 
Fe    0.0000000000000    0.0000000000000    3.8868081972844 
Fe    0.0000000000000    0.0000000000000    7.7845617735093 
Fe    0.0000000000000    0.0000000000000   11.7367410487225 
 O    1.9434040846232    0.0000000000000   -0.0000000000000 
 O    1.9434040846232    0.0000000000000    3.8868081972844 
 O    1.9434040846232    0.0000000000000    7.8482701655635 
 O    1.9434040846232    0.0000000000000   12.1205716093937 
 O    0.0000000000000    1.9434040846232    0.0000000000000 
 O    0.0000000000000    1.9434040846232    3.8868081972844 
 O    0.0000000000000    1.9434040846232    7.8482701655635 
 O    0.0000000000000    1.9434040846232   12.1205716093937 
 O    0.0000000000000    0.0000000000000    1.9434039459060 
 O    0.0000000000000    0.0000000000000    5.8302121431905 
 O    0.0000000000000    0.0000000000000    9.8600339306434 
 O    0.0000000000000    0.0000000000000   14.3521025524110 
 O    0.0000000000000    0.0000000000000   15.7692974244447 
21
FORCE:  0.079613  ...  ENERGY:  -128.56152280
Sr    1.9434040846232    1.9434040846232    1.9434039459060 
Sr    1.9434040846232    1.9434040846232    5.8302121431905 
Sr    1.9434040846232    1.9434040846232    9.6869798863880 
Sr    1.9434040846232    1.9434040846232   13.7402915793526 
Fe    0.0000000000000    0.0000000000000    0.0000000000000 
Fe    0.0000000000000    0.0000000000000    3.8868081972844 
Fe    0.0000000000000    0.0000000000000    7.7845617735093 
Fe    0.0000000000000    0.0000000000000   11.7367413541948 
 O    1.9434040846232    0.0000000000000   -0.0000000000000 
 O    1.9434040846232    0.0000000000000    3.8868081972844 
 O    1.9434040846232    0.0000000000000    7.8482704710358 
 O    1.9434040846232    0.0000000000000   12.1205719148661 
 O    0.0000000000000    1.9434040846232    0.0000000000000 
 O    0.0000000000000    1.9434040846232    3.8868081972844 
 O    0.0000000000000    1.9434040846232    7.8482704710358 
 O    0.0000000000000    1.9434040846232   12.1205719148661 
 O    0.0000000000000    0.0000000000000    1.9434039459060 
 O    0.0000000000000    0.0000000000000    5.8302121431905 
 O    0.0000000000000    0.0000000000000    9.8600339306434 
 O    0.0000000000000    0.0000000000000   14.3521049961896 
 O    0.0000000000000    0.0000000000000   15.7692955916107 
21
FORCE:  0.273183  ...  ENERGY:  -128.56290244
Sr    1.9434040846232    1.9434040846232    1.9434039459060 
Sr    1.9434040846232    1.9434040846232    5.8302121431905 
Sr    1.9434040846232    1.9434040846232    9.6869798863880 
Sr    1.9434040846232    1.9434040846232   13.7402912738802 
Fe    0.0000000000000    0.0000000000000    0.0000000000000 
Fe    0.0000000000000    0.0000000000000    3.8868081972844 
Fe    0.0000000000000    0.0000000000000    7.7845617735093 
Fe    0.0000000000000    0.0000000000000   11.7367413541948 
 O    1.9434040846232    0.0000000000000   -0.0000000000000 
 O    1.9434040846232    0.0000000000000    3.8868081972844 
 O    1.9434040846232    0.0000000000000    7.8482704710358 
 O    1.9434040846232    0.0000000000000   12.1205719148661 
 O    0.0000000000000    1.9434040846232    0.0000000000000 
 O    0.0000000000000    1.9434040846232    3.8868081972844 
 O    0.0000000000000    1.9434040846232    7.8482704710358 
 O    0.0000000000000    1.9434040846232   12.1205719148661 
 O    0.0000000000000    0.0000000000000    1.9434039459060 
 O    0.0000000000000    0.0000000000000    5.8302121431905 
 O    0.0000000000000    0.0000000000000    9.8600339306434 
 O    0.0000000000000    0.0000000000000   14.3521053016619 
 O    0.0000000000000    0.0000000000000   15.7692952861384 
21
FORCE:  0.090622  ...  ENERGY:  -128.56114753
Sr    1.9434040846232    1.9434040846232    1.9434039459060 
Sr    1.9434040846232    1.9434040846232    5.8302121431905 
Sr    1.9434040846232    1.9434040846232    9.6869798863880 
Sr    1.9434040846232    1.9434040846232   13.7402912738802 
Fe    0.0000000000000    0.0000000000000    0.0000000000000 
Fe    0.0000000000000    0.0000000000000    3.8868081972844 
Fe    0.0000000000000    0.0000000000000    7.7845617735093 
Fe    0.0000000000000    0.0000000000000   11.7367413541948 
 O    1.9434040846232    0.0000000000000   -0.0000000000000 
 O    1.9434040846232    0.0000000000000    3.8868081972844 
 O    1.9434040846232    0.0000000000000    7.8482704710358 
 O    1.9434040846232    0.0000000000000   12.1205719148661 
 O    0.0000000000000    1.9434040846232    0.0000000000000 
 O    0.0000000000000    1.9434040846232    3.8868081972844 
 O    0.0000000000000    1.9434040846232    7.8482704710358 
 O    0.0000000000000    1.9434040846232   12.1205719148661 
 O    0.0000000000000    0.0000000000000    1.9434039459060 
 O    0.0000000000000    0.0000000000000    5.8302121431905 
 O    0.0000000000000    0.0000000000000    9.8600336251711 
 O    0.0000000000000    0.0000000000000   14.3521056071343 
 O    0.0000000000000    0.0000000000000   15.7692952861384 
21
FORCE:  0.162672  ...  ENERGY:  -128.56037238
Sr    1.9434040846232    1.9434040846232    1.9434039459060 
Sr    1.9434040846232    1.9434040846232    5.8302121431905 
Sr    1.9434040846232    1.9434040846232    9.6869798863880 
Sr    1.9434040846232    1.9434040846232   13.7402912738802 
Fe    0.0000000000000    0.0000000000000    0.0000000000000 
Fe    0.0000000000000    0.0000000000000    3.8868081972844 
Fe    0.0000000000000    0.0000000000000    7.7845617735093 
Fe    0.0000000000000    0.0000000000000   11.7367413541948 
 O    1.9434040846232    0.0000000000000   -0.0000000000000 
 O    1.9434040846232    0.0000000000000    3.8868081972844 
 O    1.9434040846232    0.0000000000000    7.8482704710358 
 O    1.9434040846232    0.0000000000000   12.1205719148661 
 O    0.0000000000000    1.9434040846232    0.0000000000000 
 O    0.0000000000000    1.9434040846232    3.8868081972844 
 O    0.0000000000000    1.9434040846232    7.8482704710358 
 O    0.0000000000000    1.9434040846232   12.1205719148661 
 O    0.0000000000000    0.0000000000000    1.9434039459060 
 O    0.0000000000000    0.0000000000000    5.8302121431905 
 O    0.0000000000000    0.0000000000000    9.8600336251711 
 O    0.0000000000000    0.0000000000000   14.3521056071343 
 O    0.0000000000000    0.0000000000000   15.7692952861384 
21
FORCE:  0.077367  ...  ENERGY:  -128.56026660
Sr    1.9434040846232    1.9434040846232    1.9434039459060 
Sr    1.9434040846232    1.9434040846232    5.8302121431905 
Sr    1.9434040846232    1.9434040846232    9.6869798863880 
Sr    1.9434040846232    1.9434040846232   13.7402912738802 
Fe    0.0000000000000    0.0000000000000    0.0000000000000 
Fe    0.0000000000000    0.0000000000000    3.8868081972844 
Fe    0.0000000000000    0.0000000000000    7.7845617735093 
Fe    0.0000000000000    0.0000000000000   11.7367413541948 
 O    1.9434040846232    0.0000000000000   -0.0000000000000 
 O    1.9434040846232    0.0000000000000    3.8868081972844 
 O    1.9434040846232    0.0000000000000    7.8482704710358 
 O    1.9434040846232    0.0000000000000   12.1205719148661 
 O    0.0000000000000    1.9434040846232    0.0000000000000 
 O    0.0000000000000    1.9434040846232    3.8868081972844 
 O    0.0000000000000    1.9434040846232    7.8482704710358 
 O    0.0000000000000    1.9434040846232   12.1205719148661 
 O    0.0000000000000    0.0000000000000    1.9434039459060 
 O    0.0000000000000    0.0000000000000    5.8302121431905 
 O    0.0000000000000    0.0000000000000    9.8600336251711 
 O    0.0000000000000    0.0000000000000   14.3521056071343 
 O    0.0000000000000    0.0000000000000   15.7692952861384 
21
FORCE:  0.138891  ...  ENERGY:  -128.55833187
Sr    1.9434040846232    1.9434040846232    1.9434039459060 
Sr    1.9434040846232    1.9434040846232    5.8302121431905 
Sr    1.9434040846232    1.9434040846232    9.6869798863880 
Sr    1.9434040846232    1.9434040846232   13.7402912738802 
Fe    0.0000000000000    0.0000000000000    0.0000000000000 
Fe    0.0000000000000    0.0000000000000    3.8868081972844 
Fe    0.0000000000000    0.0000000000000    7.7845617735093 
Fe    0.0000000000000    0.0000000000000   11.7367413541948 
 O    1.9434040846232    0.0000000000000   -0.0000000000000 
 O    1.9434040846232    0.0000000000000    3.8868081972844 
 O    1.9434040846232    0.0000000000000    7.8482704710358 
 O    1.9434040846232    0.0000000000000   12.1205719148661 
 O    0.0000000000000    1.9434040846232    0.0000000000000 
 O    0.0000000000000    1.9434040846232    3.8868081972844 
 O    0.0000000000000    1.9434040846232    7.8482704710358 
 O    0.0000000000000    1.9434040846232   12.1205719148661 
 O    0.0000000000000    0.0000000000000    1.9434039459060 
 O    0.0000000000000    0.0000000000000    5.8302121431905 
 O    0.0000000000000    0.0000000000000    9.8600336251711 
 O    0.0000000000000    0.0000000000000   14.3521056071343 
 O    0.0000000000000    0.0000000000000   15.7692952861384 
21
FORCE:  0.226442  ...  ENERGY:  -128.55822730
Sr    1.9434040846232    1.9434040846232    1.9434039459060 
Sr    1.9434040846232    1.9434040846232    5.8302121431905 
Sr    1.9434040846232    1.9434040846232    9.6869798863880 
Sr    1.9434040846232    1.9434040846232   13.7402912738802 
Fe    0.0000000000000    0.0000000000000    0.0000000000000 
Fe    0.0000000000000    0.0000000000000    3.8868081972844 
Fe    0.0000000000000    0.0000000000000    7.7845617735093 
Fe    0.0000000000000    0.0000000000000   11.7367413541948 
 O    1.9434040846232    0.0000000000000   -0.0000000000000 
 O    1.9434040846232    0.0000000000000    3.8868081972844 
 O    1.9434040846232    0.0000000000000    7.8482704710358 
 O    1.9434040846232    0.0000000000000   12.1205719148661 
 O    0.0000000000000    1.9434040846232    0.0000000000000 
 O    0.0000000000000    1.9434040846232    3.8868081972844 
 O    0.0000000000000    1.9434040846232    7.8482704710358 
 O    0.0000000000000    1.9434040846232   12.1205719148661 
 O    0.0000000000000    0.0000000000000    1.9434039459060 
 O    0.0000000000000    0.0000000000000    5.8302121431905 
 O    0.0000000000000    0.0000000000000    9.8600336251711 
 O    0.0000000000000    0.0000000000000   14.3521056071343 
 O    0.0000000000000    0.0000000000000   15.7692952861384 
21
FORCE:  0.136123  ...  ENERGY:  -128.56160136
Sr    1.9434040846232    1.9434040846232    1.9434039459060 
Sr    1.9434040846232    1.9434040846232    5.8302121431905 
Sr    1.9434040846232    1.9434040846232    9.6869798863880 
Sr    1.9434040846232    1.9434040846232   13.7402912738802 
Fe    0.0000000000000    0.0000000000000    0.0000000000000 
Fe    0.0000000000000    0.0000000000000    3.8868081972844 
Fe    0.0000000000000    0.0000000000000    7.7845617735093 
Fe    0.0000000000000    0.0000000000000   11.7367413541948 
 O    1.9434040846232    0.0000000000000   -0.0000000000000 
 O    1.9434040846232    0.0000000000000    3.8868081972844 
 O    1.9434040846232    0.0000000000000    7.8482704710358 
 O    1.9434040846232    0.0000000000000   12.1205719148661 
 O    0.0000000000000    1.9434040846232    0.0000000000000 
 O    0.0000000000000    1.9434040846232    3.8868081972844 
 O    0.0000000000000    1.9434040846232    7.8482704710358 
 O    0.0000000000000    1.9434040846232   12.1205719148661 
 O    0.0000000000000    0.0000000000000    1.9434039459060 
 O    0.0000000000000    0.0000000000000    5.8302121431905 
 O    0.0000000000000    0.0000000000000    9.8600336251711 
 O    0.0000000000000    0.0000000000000   14.3521056071343 
 O    0.0000000000000    0.0000000000000   15.7692952861384 
21
FORCE:  0.078120  ...  ENERGY:  -128.56153253
Sr    1.9434040846232    1.9434040846232    1.9434039459060 
Sr    1.9434040846232    1.9434040846232    5.8302121431905 
Sr    1.9434040846232    1.9434040846232    9.6869798863880 
Sr    1.9434040846232    1.9434040846232   13.7402912738802 
Fe    0.0000000000000    0.0000000000000    0.0000000000000 
Fe    0.0000000000000    0.0000000000000    3.8868081972844 
Fe    0.0000000000000    0.0000000000000    7.7845617735093 
Fe    0.0000000000000    0.0000000000000   11.7367413541948 
 O    1.9434040846232    0.0000000000000   -0.0000000000000 
 O    1.9434040846232    0.0000000000000    3.8868081972844 
 O    1.9434040846232    0.0000000000000    7.8482704710358 
 O    1.9434040846232    0.0000000000000   12.1205719148661 
 O    0.0000000000000    1.9434040846232    0.0000000000000 
 O    0.0000000000000    1.9434040846232    3.8868081972844 
 O    0.0000000000000    1.9434040846232    7.8482704710358 
 O    0.0000000000000    1.9434040846232   12.1205719148661 
 O    0.0000000000000    0.0000000000000    1.9434039459060 
 O    0.0000000000000    0.0000000000000    5.8302121431905 
 O    0.0000000000000    0.0000000000000    9.8600336251711 
 O    0.0000000000000    0.0000000000000   14.3521056071343 
 O    0.0000000000000    0.0000000000000   15.7692952861384 
21
FORCE:  0.483629  ...  ENERGY:  -128.55500367
Sr    1.9434040846232    1.9434040846232    1.9434039459060 
Sr    1.9434040846232    1.9434040846232    5.8302121431905 
Sr    1.9434040846232    1.9434040846232    9.6882772273598 
Sr    1.9434040846232    1.9434040846232   13.7442059017478 
Fe    0.0000000000000    0.0000000000000    0.0000000000000 
Fe    0.0000000000000    0.0000000000000    3.8868081972844 
Fe    0.0000000000000    0.0000000000000    7.7846839624400 
Fe    0.0000000000000    0.0000000000000   11.7354983872972 
 O    1.9434040846232    0.0000000000000   -0.0000000000000 
 O    1.9434040846232    0.0000000000000    3.8868081972844 
 O    1.9434040846232    0.0000000000000    7.8476292846219 
 O    1.9434040846232    0.0000000000000   12.1200993491766 
 O    0.0000000000000    1.9434040846232    0.0000000000000 
 O    0.0000000000000    1.9434040846232    3.8868081972844 
 O    0.0000000000000    1.9434040846232    7.8476292846219 
 O    0.0000000000000    1.9434040846232   12.1200993491766 
 O    0.0000000000000    0.0000000000000    1.9434039459060 
 O    0.0000000000000    0.0000000000000    5.8302121431905 
 O    0.0000000000000    0.0000000000000    9.8602587582759 
 O    0.0000000000000    0.0000000000000   14.3438749607618 
 O    0.0000000000000    0.0000000000000   15.7752629935142 
