21
FORCE:  0.557589  ...  ENERGY:  -125.53336963
Sr    1.9434040846232    1.9434040846232    1.9434039459060 
Sr    1.9434040846232    1.9434040846232    5.8302121431905 
Sr    1.9434040846232    1.9434040846232    9.7728328838267 
Sr    1.9434040846232    1.9434040846232   13.5919389438568 
Fe    0.0000000000000    0.0000000000000    0.0000000000000 
Fe    0.0000000000000    0.0000000000000    3.8868081972844 
Fe    0.0000000000000    0.0000000000000    7.8139439347320 
Fe    0.0000000000000    0.0000000000000   11.7495834108122 
 O    1.9434040846232    0.0000000000000   -0.0000000000000 
 O    1.9434040846232    0.0000000000000    3.8868081972844 
 O    1.9434040846232    0.0000000000000    7.8071728351368 
 O    1.9434040846232    0.0000000000000   11.7156674293156 
 O    0.0000000000000    1.9434040846232    0.0000000000000 
 O    0.0000000000000    1.9434040846232    3.8868081972844 
 O    0.0000000000000    1.9434040846232    7.8071728351368 
 O    0.0000000000000    1.9434040846232   11.7156674293156 
 O    0.0000000000000    0.0000000000000    1.9434039459060 
 O    0.0000000000000    0.0000000000000    5.8302121431905 
 O    0.0000000000000    0.0000000000000    9.7972129356985 
 O    0.0000000000000    0.0000000000000   13.6059078878876 
 O    1.9434040846232    1.9434040846232   16.1622411410404 
21
FORCE:  4.951594  ...  ENERGY:  -111.86570672
Sr    1.9434040846232    1.9434040846232    1.9434039459060 
Sr    1.9434040846232    1.9434040846232    5.8302121431905 
Sr    1.9434040846232    1.9434040846232    9.7668248541038 
Sr    1.9434040846232    1.9434040846232   13.5835971055574 
Fe    0.0000000000000    0.0000000000000    0.0000000000000 
Fe    0.0000000000000    0.0000000000000    3.8868081972844 
Fe    0.0000000000000    0.0000000000000    7.8102703245303 
Fe    0.0000000000000    0.0000000000000   11.7456855839227 
 O    1.9434040846232    0.0000000000000   -0.0000000000000 
 O    1.9434040846232    0.0000000000000    3.8868081972844 
 O    1.9434040846232    0.0000000000000    7.8080073855336 
 O    1.9434040846232    0.0000000000000   11.7189567553303 
 O    0.0000000000000    1.9434040846232    0.0000000000000 
 O    0.0000000000000    1.9434040846232    3.8868081972844 
 O    0.0000000000000    1.9434040846232    7.8080073855336 
 O    0.0000000000000    1.9434040846232   11.7189567553303 
 O    0.0000000000000    0.0000000000000    1.9434039459060 
 O    0.0000000000000    0.0000000000000    5.8302121431905 
 O    0.0000000000000    0.0000000000000    9.7924099943047 
 O    0.0000000000000    0.0000000000000   13.6082328377667 
 O    1.9434040846232    1.9434040846232   16.1891407286635 
21
FORCE:  0.269045  ...  ENERGY:  -126.35921103
Sr    1.9434040846232    1.9434040846232    1.9434039459060 
Sr    1.9434040846232    1.9434040846232    5.8302121431905 
Sr    1.9434040846232    1.9434040846232    9.7488013758797 
Sr    1.9434040846232    1.9434040846232   13.5585718961314 
Fe    0.0000000000000    0.0000000000000    0.0000000000000 
Fe    0.0000000000000    0.0000000000000    3.8868081972844 
Fe    0.0000000000000    0.0000000000000    7.7992497993974 
Fe    0.0000000000000    0.0000000000000   11.7339911868369 
 O    1.9434040846232    0.0000000000000   -0.0000000000000 
 O    1.9434040846232    0.0000000000000    3.8868081972844 
 O    1.9434040846232    0.0000000000000    7.8105110367238 
 O    1.9434040846232    0.0000000000000   11.7288241224296 
 O    0.0000000000000    1.9434040846232    0.0000000000000 
 O    0.0000000000000    1.9434040846232    3.8868081972844 
 O    0.0000000000000    1.9434040846232    7.8105110367238 
 O    0.0000000000000    1.9434040846232   11.7288241224296 
 O    0.0000000000000    0.0000000000000    1.9434039459060 
 O    0.0000000000000    0.0000000000000    5.8302121431905 
 O    0.0000000000000    0.0000000000000    9.7780008646510 
 O    0.0000000000000    0.0000000000000   13.6152079928762 
 O    1.9434040846232    1.9434040846232   16.2698394915325 
21
FORCE:  1.352651  ...  ENERGY:  -126.35539646
Sr    1.9434040846232    1.9434040846232    1.9434039459060 
Sr    1.9434040846232    1.9434040846232    5.8302121431905 
Sr    1.9434040846232    1.9434040846232    9.7407921969441 
Sr    1.9434040846232    1.9434040846232   13.5491764837769 
Fe    0.0000000000000    0.0000000000000    0.0000000000000 
Fe    0.0000000000000    0.0000000000000    3.8868081972844 
Fe    0.0000000000000    0.0000000000000    7.8043704320111 
Fe    0.0000000000000    0.0000000000000   11.7500639187823 
 O    1.9434040846232    0.0000000000000   -0.0000000000000 
 O    1.9434040846232    0.0000000000000    3.8868081972844 
 O    1.9434040846232    0.0000000000000    7.8061714968497 
 O    1.9434040846232    0.0000000000000   11.7255687038432 
 O    0.0000000000000    1.9434040846232    0.0000000000000 
 O    0.0000000000000    1.9434040846232    3.8868081972844 
 O    0.0000000000000    1.9434040846232    7.8061714968497 
 O    0.0000000000000    1.9434040846232   11.7255687038432 
 O    0.0000000000000    0.0000000000000    1.9434039459060 
 O    0.0000000000000    0.0000000000000    5.8302121431905 
 O    0.0000000000000    0.0000000000000    9.7873177706175 
 O    0.0000000000000    0.0000000000000   13.5963985343553 
 O    1.9434040846232    1.9434040846232   16.3024822643712 
21
FORCE:  0.343120  ...  ENERGY:  -126.61205707
Sr    1.9434040846232    1.9434040846232    1.9434039459060 
Sr    1.9434040846232    1.9434040846232    5.8302121431905 
Sr    1.9434040846232    1.9434040846232    9.7469722075870 
Sr    1.9434040846232    1.9434040846232   13.5564262585082 
Fe    0.0000000000000    0.0000000000000    0.0000000000000 
Fe    0.0000000000000    0.0000000000000    3.8868081972844 
Fe    0.0000000000000    0.0000000000000    7.8004191474643 
Fe    0.0000000000000    0.0000000000000   11.7376617423154 
 O    1.9434040846232    0.0000000000000   -0.0000000000000 
 O    1.9434040846232    0.0000000000000    3.8868081972844 
 O    1.9434040846232    0.0000000000000    7.8095200844957 
 O    1.9434040846232    0.0000000000000   11.7280806027863 
 O    0.0000000000000    1.9434040846232    0.0000000000000 
 O    0.0000000000000    1.9434040846232    3.8868081972844 
 O    0.0000000000000    1.9434040846232    7.8095200844957 
 O    0.0000000000000    1.9434040846232   11.7280806027863 
 O    0.0000000000000    0.0000000000000    1.9434039459060 
 O    0.0000000000000    0.0000000000000    5.8302121431905 
 O    0.0000000000000    0.0000000000000    9.7801284794069 
 O    0.0000000000000    0.0000000000000   13.6109124410171 
 O    1.9434040846232    1.9434040846232   16.2772942381950 
21
FORCE:  0.280720  ...  ENERGY:  -126.61484533
Sr    1.9434040846232    1.9434040846232    1.9434039459060 
Sr    1.9434040846232    1.9434040846232    5.8302121431905 
Sr    1.9434040846232    1.9434040846232    9.7447948008418 
Sr    1.9434040846232    1.9434040846232   13.5663043171389 
Fe    0.0000000000000    0.0000000000000    0.0000000000000 
Fe    0.0000000000000    0.0000000000000    3.8868081972844 
Fe    0.0000000000000    0.0000000000000    7.8079838641644 
Fe    0.0000000000000    0.0000000000000   11.7527300812503 
 O    1.9434040846232    0.0000000000000   -0.0000000000000 
 O    1.9434040846232    0.0000000000000    3.8868081972844 
 O    1.9434040846232    0.0000000000000    7.8043389683614 
 O    1.9434040846232    0.0000000000000   11.7213058375232 
 O    0.0000000000000    1.9434040846232    0.0000000000000 
 O    0.0000000000000    1.9434040846232    3.8868081972844 
 O    0.0000000000000    1.9434040846232    7.8043389683614 
 O    0.0000000000000    1.9434040846232   11.7213058375232 
 O    0.0000000000000    0.0000000000000    1.9434039459060 
 O    0.0000000000000    0.0000000000000    5.8302121431905 
 O    0.0000000000000    0.0000000000000    9.7916096568086 
 O    0.0000000000000    0.0000000000000   13.5956009461101 
 O    1.9434040846232    1.9434040846232   16.2835387034989 
21
FORCE:  0.299453  ...  ENERGY:  -126.61653916
Sr    1.9434040846232    1.9434040846232    1.9434039459060 
Sr    1.9434040846232    1.9434040846232    5.8302121431905 
Sr    1.9434040846232    1.9434040846232    9.7455697841348 
Sr    1.9434040846232    1.9434040846232   13.5627874142408 
Fe    0.0000000000000    0.0000000000000    0.0000000000000 
Fe    0.0000000000000    0.0000000000000    3.8868081972844 
Fe    0.0000000000000    0.0000000000000    7.8052908201316 
Fe    0.0000000000000    0.0000000000000   11.7473653762476 
 O    1.9434040846232    0.0000000000000   -0.0000000000000 
 O    1.9434040846232    0.0000000000000    3.8868081972844 
 O    1.9434040846232    0.0000000000000    7.8061834102704 
 O    1.9434040846232    0.0000000000000   11.7237178470153 
 O    0.0000000000000    1.9434040846232    0.0000000000000 
 O    0.0000000000000    1.9434040846232    3.8868081972844 
 O    0.0000000000000    1.9434040846232    7.8061834102704 
 O    0.0000000000000    1.9434040846232   11.7237178470153 
 O    0.0000000000000    0.0000000000000    1.9434039459060 
 O    0.0000000000000    0.0000000000000    5.8302121431905 
 O    0.0000000000000    0.0000000000000    9.7875221316041 
 O    0.0000000000000    0.0000000000000   13.6010520997813 
 O    1.9434040846232    1.9434040846232   16.2813154759046 
21
FORCE:  0.230563  ...  ENERGY:  -126.62384474
Sr    1.9434040846232    1.9434040846232    1.9434039459060 
Sr    1.9434040846232    1.9434040846232    5.8302121431905 
Sr    1.9434040846232    1.9434040846232    9.7485649402988 
Sr    1.9434040846232    1.9434040846232   13.5753276641994 
Fe    0.0000000000000    0.0000000000000    0.0000000000000 
Fe    0.0000000000000    0.0000000000000    3.8868081972844 
Fe    0.0000000000000    0.0000000000000    7.8085126367621 
Fe    0.0000000000000    0.0000000000000   11.7441001825467 
 O    1.9434040846232    0.0000000000000   -0.0000000000000 
 O    1.9434040846232    0.0000000000000    3.8868081972844 
 O    1.9434040846232    0.0000000000000    7.8045109492814 
 O    1.9434040846232    0.0000000000000   11.7204871716874 
 O    0.0000000000000    1.9434040846232    0.0000000000000 
 O    0.0000000000000    1.9434040846232    3.8868081972844 
 O    0.0000000000000    1.9434040846232    7.8045109492814 
 O    0.0000000000000    1.9434040846232   11.7204871716874 
 O    0.0000000000000    0.0000000000000    1.9434039459060 
 O    0.0000000000000    0.0000000000000    5.8302121431905 
 O    0.0000000000000    0.0000000000000    9.7913509217478 
 O    0.0000000000000    0.0000000000000   13.6034302018452 
 O    1.9434040846232    1.9434040846232   16.2716335305077 
21
FORCE:  0.300454  ...  ENERGY:  -126.63143208
Sr    1.9434040846232    1.9434040846232    1.9434039459060 
Sr    1.9434040846232    1.9434040846232    5.8302121431905 
Sr    1.9434040846232    1.9434040846232    9.7558302941187 
Sr    1.9434040846232    1.9434040846232   13.6057465984991 
Fe    0.0000000000000    0.0000000000000    0.0000000000000 
Fe    0.0000000000000    0.0000000000000    3.8868081972844 
Fe    0.0000000000000    0.0000000000000    7.8163287571871 
Fe    0.0000000000000    0.0000000000000   11.7361789796413 
 O    1.9434040846232    0.0000000000000   -0.0000000000000 
 O    1.9434040846232    0.0000000000000    3.8868081972844 
 O    1.9434040846232    0.0000000000000    7.8004536658372 
 O    1.9434040846232    0.0000000000000   11.7126508900888 
 O    0.0000000000000    1.9434040846232    0.0000000000000 
 O    0.0000000000000    1.9434040846232    3.8868081972844 
 O    0.0000000000000    1.9434040846232    7.8004536658372 
 O    0.0000000000000    1.9434040846232   11.7126508900888 
 O    0.0000000000000    0.0000000000000    1.9434039459060 
 O    0.0000000000000    0.0000000000000    5.8302121431905 
 O    0.0000000000000    0.0000000000000    9.8006388078432 
 O    0.0000000000000    0.0000000000000   13.6091984357916 
 O    1.9434040846232    1.9434040846232   16.2481482070809 
21
FORCE:  0.174789  ...  ENERGY:  -126.63541653
Sr    1.9434040846232    1.9434040846232    1.9434039459060 
Sr    1.9434040846232    1.9434040846232    5.8302121431905 
Sr    1.9434040846232    1.9434040846232    9.7609607018468 
Sr    1.9434040846232    1.9434040846232   13.6171288028669 
Fe    0.0000000000000    0.0000000000000    0.0000000000000 
Fe    0.0000000000000    0.0000000000000    3.8868081972844 
Fe    0.0000000000000    0.0000000000000    7.8148029229149 
Fe    0.0000000000000    0.0000000000000   11.7441756342114 
 O    1.9434040846232    0.0000000000000   -0.0000000000000 
 O    1.9434040846232    0.0000000000000    3.8868081972844 
 O    1.9434040846232    0.0000000000000    7.8006980436986 
 O    1.9434040846232    0.0000000000000   11.7105739837391 
 O    0.0000000000000    1.9434040846232    0.0000000000000 
 O    0.0000000000000    1.9434040846232    3.8868081972844 
 O    0.0000000000000    1.9434040846232    7.8006980436986 
 O    0.0000000000000    1.9434040846232   11.7105739837391 
 O    0.0000000000000    0.0000000000000    1.9434039459060 
 O    0.0000000000000    0.0000000000000    5.8302121431905 
 O    0.0000000000000    0.0000000000000    9.7982820888422 
 O    0.0000000000000    0.0000000000000   13.6077327795678 
 O    1.9434040846232    1.9434040846232   16.2341581854595 
21
FORCE:  0.123805  ...  ENERGY:  -126.63594223
Sr    1.9434040846232    1.9434040846232    1.9434039459060 
Sr    1.9434040846232    1.9434040846232    5.8302121431905 
Sr    1.9434040846232    1.9434040846232    9.7604832486000 
Sr    1.9434040846232    1.9434040846232   13.6160694248376 
Fe    0.0000000000000    0.0000000000000    0.0000000000000 
Fe    0.0000000000000    0.0000000000000    3.8868081972844 
Fe    0.0000000000000    0.0000000000000    7.8149449675469 
Fe    0.0000000000000    0.0000000000000   11.7434315036234 
 O    1.9434040846232    0.0000000000000   -0.0000000000000 
 O    1.9434040846232    0.0000000000000    3.8868081972844 
 O    1.9434040846232    0.0000000000000    7.8006751332741 
 O    1.9434040846232    0.0000000000000   11.7107673477219 
 O    0.0000000000000    1.9434040846232    0.0000000000000 
 O    0.0000000000000    1.9434040846232    3.8868081972844 
 O    0.0000000000000    1.9434040846232    7.8006751332741 
 O    0.0000000000000    1.9434040846232   11.7107673477219 
 O    0.0000000000000    0.0000000000000    1.9434039459060 
 O    0.0000000000000    0.0000000000000    5.8302121431905 
 O    0.0000000000000    0.0000000000000    9.7985014179728 
 O    0.0000000000000    0.0000000000000   13.6078690202255 
 O    1.9434040846232    1.9434040846232   16.2354601085162 
21
FORCE:  0.146737  ...  ENERGY:  -126.63579554
Sr    1.9434040846232    1.9434040846232    1.9434039459060 
Sr    1.9434040846232    1.9434040846232    5.8302121431905 
Sr    1.9434040846232    1.9434040846232    9.7608458442519 
Sr    1.9434040846232    1.9434040846232   13.6168737334740 
Fe    0.0000000000000    0.0000000000000    0.0000000000000 
Fe    0.0000000000000    0.0000000000000    3.8868081972844 
Fe    0.0000000000000    0.0000000000000    7.8148371358155 
Fe    0.0000000000000    0.0000000000000   11.7439966274280 
 O    1.9434040846232    0.0000000000000   -0.0000000000000 
 O    1.9434040846232    0.0000000000000    3.8868081972844 
 O    1.9434040846232    0.0000000000000    7.8006925451967 
 O    1.9434040846232    0.0000000000000   11.7106207210051 
 O    0.0000000000000    1.9434040846232    0.0000000000000 
 O    0.0000000000000    1.9434040846232    3.8868081972844 
 O    0.0000000000000    1.9434040846232    7.8006925451967 
 O    0.0000000000000    1.9434040846232   11.7106207210051 
 O    0.0000000000000    0.0000000000000    1.9434039459060 
 O    0.0000000000000    0.0000000000000    5.8302121431905 
 O    0.0000000000000    0.0000000000000    9.7983349355547 
 O    0.0000000000000    0.0000000000000   13.6077654651067 
 O    1.9434040846232    1.9434040846232   16.2344716000668 
21
FORCE:  0.108075  ...  ENERGY:  -126.63634090
Sr    1.9434040846232    1.9434040846232    1.9434039459060 
Sr    1.9434040846232    1.9434040846232    5.8302121431905 
Sr    1.9434040846232    1.9434040846232    9.7609405406732 
Sr    1.9434040846232    1.9434040846232   13.6170842039072 
Fe    0.0000000000000    0.0000000000000    0.0000000000000 
Fe    0.0000000000000    0.0000000000000    3.8868081972844 
Fe    0.0000000000000    0.0000000000000    7.8148090323614 
Fe    0.0000000000000    0.0000000000000   11.7441444760341 
 O    1.9434040846232    0.0000000000000   -0.0000000000000 
 O    1.9434040846232    0.0000000000000    3.8868081972844 
 O    1.9434040846232    0.0000000000000    7.8006971272817 
 O    1.9434040846232    0.0000000000000   11.7105822314919 
 O    0.0000000000000    1.9434040846232    0.0000000000000 
 O    0.0000000000000    1.9434040846232    3.8868081972844 
 O    0.0000000000000    1.9434040846232    7.8006971272817 
 O    0.0000000000000    1.9434040846232   11.7105822314919 
 O    0.0000000000000    0.0000000000000    1.9434039459060 
 O    0.0000000000000    0.0000000000000    5.8302121431905 
 O    0.0000000000000    0.0000000000000    9.7982912530120 
 O    0.0000000000000    0.0000000000000   13.6077385835420 
 O    1.9434040846232    1.9434040846232   16.2342128650060 
21
FORCE:  0.136377  ...  ENERGY:  -126.63596153
Sr    1.9434040846232    1.9434040846232    1.9434039459060 
Sr    1.9434040846232    1.9434040846232    5.8302121431905 
Sr    1.9434040846232    1.9434040846232    9.7609542869279 
Sr    1.9434040846232    1.9434040846232   13.6171147511399 
Fe    0.0000000000000    0.0000000000000    0.0000000000000 
Fe    0.0000000000000    0.0000000000000    3.8868081972844 
Fe    0.0000000000000    0.0000000000000    7.8148050612212 
Fe    0.0000000000000    0.0000000000000   11.7441658590970 
 O    1.9434040846232    0.0000000000000   -0.0000000000000 
 O    1.9434040846232    0.0000000000000    3.8868081972844 
 O    1.9434040846232    0.0000000000000    7.8006977382263 
 O    1.9434040846232    0.0000000000000   11.7105767329900 
 O    0.0000000000000    1.9434040846232    0.0000000000000 
 O    0.0000000000000    1.9434040846232    3.8868081972844 
 O    0.0000000000000    1.9434040846232    7.8006977382263 
 O    0.0000000000000    1.9434040846232   11.7105767329900 
 O    0.0000000000000    0.0000000000000    1.9434039459060 
 O    0.0000000000000    0.0000000000000    5.8302121431905 
 O    0.0000000000000    0.0000000000000    9.7982848380932 
 O    0.0000000000000    0.0000000000000   13.6077346124017 
 O    1.9434040846232    1.9434040846232   16.2341755973822 
21
FORCE:  0.114184  ...  ENERGY:  -126.63621004
Sr    1.9434040846232    1.9434040846232    1.9434039459060 
Sr    1.9434040846232    1.9434040846232    5.8302121431905 
Sr    1.9434040846232    1.9434040846232    9.7609594799575 
Sr    1.9434040846232    1.9434040846232   13.6171260536159 
Fe    0.0000000000000    0.0000000000000    0.0000000000000 
Fe    0.0000000000000    0.0000000000000    3.8868081972844 
Fe    0.0000000000000    0.0000000000000    7.8148035338596 
Fe    0.0000000000000    0.0000000000000   11.7441738013775 
 O    1.9434040846232    0.0000000000000   -0.0000000000000 
 O    1.9434040846232    0.0000000000000    3.8868081972844 
 O    1.9434040846232    0.0000000000000    7.8006977382263 
 O    1.9434040846232    0.0000000000000   11.7105745946837 
 O    0.0000000000000    1.9434040846232    0.0000000000000 
 O    0.0000000000000    1.9434040846232    3.8868081972844 
 O    0.0000000000000    1.9434040846232    7.8006977382263 
 O    0.0000000000000    1.9434040846232   11.7105745946837 
 O    0.0000000000000    0.0000000000000    1.9434039459060 
 O    0.0000000000000    0.0000000000000    5.8302121431905 
 O    0.0000000000000    0.0000000000000    9.7982826997869 
 O    0.0000000000000    0.0000000000000   13.6077330850401 
 O    1.9434040846232    1.9434040846232   16.2341615456551 
21
FORCE:  0.154988  ...  ENERGY:  -126.63589719
Sr    1.9434040846232    1.9434040846232    1.9434039459060 
Sr    1.9434040846232    1.9434040846232    5.8302121431905 
Sr    1.9434040846232    1.9434040846232    9.7609603963745 
Sr    1.9434040846232    1.9434040846232   13.6171281919222 
Fe    0.0000000000000    0.0000000000000    0.0000000000000 
Fe    0.0000000000000    0.0000000000000    3.8868081972844 
Fe    0.0000000000000    0.0000000000000    7.8148032283872 
Fe    0.0000000000000    0.0000000000000   11.7441753287391 
 O    1.9434040846232    0.0000000000000   -0.0000000000000 
 O    1.9434040846232    0.0000000000000    3.8868081972844 
 O    1.9434040846232    0.0000000000000    7.8006980436986 
 O    1.9434040846232    0.0000000000000   11.7105742892114 
 O    0.0000000000000    1.9434040846232    0.0000000000000 
 O    0.0000000000000    1.9434040846232    3.8868081972844 
 O    0.0000000000000    1.9434040846232    7.8006980436986 
 O    0.0000000000000    1.9434040846232   11.7105742892114 
 O    0.0000000000000    0.0000000000000    1.9434039459060 
 O    0.0000000000000    0.0000000000000    5.8302121431905 
 O    0.0000000000000    0.0000000000000    9.7982820888422 
 O    0.0000000000000    0.0000000000000   13.6077327795678 
 O    1.9434040846232    1.9434040846232   16.2341587964042 
21
FORCE:  0.173759  ...  ENERGY:  -126.63586921
Sr    1.9434040846232    1.9434040846232    1.9434039459060 
Sr    1.9434040846232    1.9434040846232    5.8302121431905 
Sr    1.9434040846232    1.9434040846232    9.7609607018468 
Sr    1.9434040846232    1.9434040846232   13.6171288028669 
Fe    0.0000000000000    0.0000000000000    0.0000000000000 
Fe    0.0000000000000    0.0000000000000    3.8868081972844 
Fe    0.0000000000000    0.0000000000000    7.8148029229149 
Fe    0.0000000000000    0.0000000000000   11.7441756342114 
 O    1.9434040846232    0.0000000000000   -0.0000000000000 
 O    1.9434040846232    0.0000000000000    3.8868081972844 
 O    1.9434040846232    0.0000000000000    7.8006980436986 
 O    1.9434040846232    0.0000000000000   11.7105739837391 
 O    0.0000000000000    1.9434040846232    0.0000000000000 
 O    0.0000000000000    1.9434040846232    3.8868081972844 
 O    0.0000000000000    1.9434040846232    7.8006980436986 
 O    0.0000000000000    1.9434040846232   11.7105739837391 
 O    0.0000000000000    0.0000000000000    1.9434039459060 
 O    0.0000000000000    0.0000000000000    5.8302121431905 
 O    0.0000000000000    0.0000000000000    9.7982820888422 
 O    0.0000000000000    0.0000000000000   13.6077327795678 
 O    1.9434040846232    1.9434040846232   16.2341581854595 
21
FORCE:  0.122616  ...  ENERGY:  -126.63610194
Sr    1.9434040846232    1.9434040846232    1.9434039459060 
Sr    1.9434040846232    1.9434040846232    5.8302121431905 
Sr    1.9434040846232    1.9434040846232    9.7609607018468 
Sr    1.9434040846232    1.9434040846232   13.6171288028669 
Fe    0.0000000000000    0.0000000000000    0.0000000000000 
Fe    0.0000000000000    0.0000000000000    3.8868081972844 
Fe    0.0000000000000    0.0000000000000    7.8148029229149 
Fe    0.0000000000000    0.0000000000000   11.7441756342114 
 O    1.9434040846232    0.0000000000000   -0.0000000000000 
 O    1.9434040846232    0.0000000000000    3.8868081972844 
 O    1.9434040846232    0.0000000000000    7.8006980436986 
 O    1.9434040846232    0.0000000000000   11.7105739837391 
 O    0.0000000000000    1.9434040846232    0.0000000000000 
 O    0.0000000000000    1.9434040846232    3.8868081972844 
 O    0.0000000000000    1.9434040846232    7.8006980436986 
 O    0.0000000000000    1.9434040846232   11.7105739837391 
 O    0.0000000000000    0.0000000000000    1.9434039459060 
 O    0.0000000000000    0.0000000000000    5.8302121431905 
 O    0.0000000000000    0.0000000000000    9.7982820888422 
 O    0.0000000000000    0.0000000000000   13.6077327795678 
 O    1.9434040846232    1.9434040846232   16.2341581854595 
21
FORCE:  0.135099  ...  ENERGY:  -126.63599246
Sr    1.9434040846232    1.9434040846232    1.9434039459060 
Sr    1.9434040846232    1.9434040846232    5.8302121431905 
Sr    1.9434040846232    1.9434040846232    9.7609607018468 
Sr    1.9434040846232    1.9434040846232   13.6171288028669 
Fe    0.0000000000000    0.0000000000000    0.0000000000000 
Fe    0.0000000000000    0.0000000000000    3.8868081972844 
Fe    0.0000000000000    0.0000000000000    7.8148029229149 
Fe    0.0000000000000    0.0000000000000   11.7441756342114 
 O    1.9434040846232    0.0000000000000   -0.0000000000000 
 O    1.9434040846232    0.0000000000000    3.8868081972844 
 O    1.9434040846232    0.0000000000000    7.8006980436986 
 O    1.9434040846232    0.0000000000000   11.7105739837391 
 O    0.0000000000000    1.9434040846232    0.0000000000000 
 O    0.0000000000000    1.9434040846232    3.8868081972844 
 O    0.0000000000000    1.9434040846232    7.8006980436986 
 O    0.0000000000000    1.9434040846232   11.7105739837391 
 O    0.0000000000000    0.0000000000000    1.9434039459060 
 O    0.0000000000000    0.0000000000000    5.8302121431905 
 O    0.0000000000000    0.0000000000000    9.7982820888422 
 O    0.0000000000000    0.0000000000000   13.6077327795678 
 O    1.9434040846232    1.9434040846232   16.2341581854595 
21
FORCE:  0.147037  ...  ENERGY:  -126.63596003
Sr    1.9434040846232    1.9434040846232    1.9434039459060 
Sr    1.9434040846232    1.9434040846232    5.8302121431905 
Sr    1.9434040846232    1.9434040846232    9.7609607018468 
Sr    1.9434040846232    1.9434040846232   13.6171288028669 
Fe    0.0000000000000    0.0000000000000    0.0000000000000 
Fe    0.0000000000000    0.0000000000000    3.8868081972844 
Fe    0.0000000000000    0.0000000000000    7.8148029229149 
Fe    0.0000000000000    0.0000000000000   11.7441756342114 
 O    1.9434040846232    0.0000000000000   -0.0000000000000 
 O    1.9434040846232    0.0000000000000    3.8868081972844 
 O    1.9434040846232    0.0000000000000    7.8006980436986 
 O    1.9434040846232    0.0000000000000   11.7105739837391 
 O    0.0000000000000    1.9434040846232    0.0000000000000 
 O    0.0000000000000    1.9434040846232    3.8868081972844 
 O    0.0000000000000    1.9434040846232    7.8006980436986 
 O    0.0000000000000    1.9434040846232   11.7105739837391 
 O    0.0000000000000    0.0000000000000    1.9434039459060 
 O    0.0000000000000    0.0000000000000    5.8302121431905 
 O    0.0000000000000    0.0000000000000    9.7982820888422 
 O    0.0000000000000    0.0000000000000   13.6077327795678 
 O    1.9434040846232    1.9434040846232   16.2341581854595 
21
FORCE:  0.113852  ...  ENERGY:  -126.63653596
Sr    1.9434040846232    1.9434040846232    1.9434039459060 
Sr    1.9434040846232    1.9434040846232    5.8302121431905 
Sr    1.9434040846232    1.9434040846232    9.7609607018468 
Sr    1.9434040846232    1.9434040846232   13.6171288028669 
Fe    0.0000000000000    0.0000000000000    0.0000000000000 
Fe    0.0000000000000    0.0000000000000    3.8868081972844 
Fe    0.0000000000000    0.0000000000000    7.8148029229149 
Fe    0.0000000000000    0.0000000000000   11.7441756342114 
 O    1.9434040846232    0.0000000000000   -0.0000000000000 
 O    1.9434040846232    0.0000000000000    3.8868081972844 
 O    1.9434040846232    0.0000000000000    7.8006980436986 
 O    1.9434040846232    0.0000000000000   11.7105739837391 
 O    0.0000000000000    1.9434040846232    0.0000000000000 
 O    0.0000000000000    1.9434040846232    3.8868081972844 
 O    0.0000000000000    1.9434040846232    7.8006980436986 
 O    0.0000000000000    1.9434040846232   11.7105739837391 
 O    0.0000000000000    0.0000000000000    1.9434039459060 
 O    0.0000000000000    0.0000000000000    5.8302121431905 
 O    0.0000000000000    0.0000000000000    9.7982820888422 
 O    0.0000000000000    0.0000000000000   13.6077327795678 
 O    1.9434040846232    1.9434040846232   16.2341581854595 
