21
FORCE:  0.313313  ...  ENERGY:  -128.47114291
Sr    1.9434040846232    1.9434040846232    1.9434039459060 
Sr    1.9434040846232    1.9434040846232    5.8302121431905 
Sr    1.9434040846232    1.9434040846232    9.6625928086527 
Sr    1.9434040846232    1.9434040846232   13.7360644532947 
Fe    0.0000000000000    0.0000000000000    0.0000000000000 
Fe    0.0000000000000    0.0000000000000    3.8868081972844 
Fe    0.0000000000000    0.0000000000000    7.7823898652660 
Fe    0.0000000000000    0.0000000000000   11.7348104636173 
 O    1.9434040846232    0.0000000000000   -0.0000000000000 
 O    1.9434040846232    0.0000000000000    3.8868081972844 
 O    1.9434040846232    0.0000000000000    7.8516025631762 
 O    1.9434040846232    0.0000000000000   12.1286394390161 
 O    0.0000000000000    1.9434040846232    0.0000000000000 
 O    0.0000000000000    1.9434040846232    3.8868081972844 
 O    0.0000000000000    1.9434040846232    7.8516025631762 
 O    0.0000000000000    1.9434040846232   12.1286394390161 
 O    0.0000000000000    0.0000000000000    1.9434039459060 
 O    0.0000000000000    0.0000000000000    5.8302121431905 
 O    0.0000000000000    0.0000000000000    9.8595824425444 
 O    0.0000000000000    0.0000000000000   14.4094659787658 
 O    0.0000000000000    0.0000000000000   15.8241581160263 
21
FORCE:  1.019647  ...  ENERGY:  -128.56101939
Sr    1.9434040846232    1.9434040846232    1.9434039459060 
Sr    1.9434040846232    1.9434040846232    5.8302121431905 
Sr    1.9434040846232    1.9434040846232    9.6629053068430 
Sr    1.9434040846232    1.9434040846232   13.7341396721638 
Fe    0.0000000000000    0.0000000000000    0.0000000000000 
Fe    0.0000000000000    0.0000000000000    3.8868081972844 
Fe    0.0000000000000    0.0000000000000    7.7801290645756 
Fe    0.0000000000000    0.0000000000000   11.7354693674262 
 O    1.9434040846232    0.0000000000000   -0.0000000000000 
 O    1.9434040846232    0.0000000000000    3.8868081972844 
 O    1.9434040846232    0.0000000000000    7.8521246153827 
 O    1.9434040846232    0.0000000000000   12.1282673737221 
 O    0.0000000000000    1.9434040846232    0.0000000000000 
 O    0.0000000000000    1.9434040846232    3.8868081972844 
 O    0.0000000000000    1.9434040846232    7.8521246153827 
 O    0.0000000000000    1.9434040846232   12.1282673737221 
 O    0.0000000000000    0.0000000000000    1.9434039459060 
 O    0.0000000000000    0.0000000000000    5.8302121431905 
 O    0.0000000000000    0.0000000000000    9.8581283942690 
 O    0.0000000000000    0.0000000000000   14.4245810549667 
 O    0.0000000000000    0.0000000000000   15.8153440175096 
21
FORCE:  0.247897  ...  ENERGY:  -128.57138058
Sr    1.9434040846232    1.9434040846232    1.9434039459060 
Sr    1.9434040846232    1.9434040846232    5.8302121431905 
Sr    1.9434040846232    1.9434040846232    9.6626594016199 
Sr    1.9434040846232    1.9434040846232   13.7356548149045 
Fe    0.0000000000000    0.0000000000000    0.0000000000000 
Fe    0.0000000000000    0.0000000000000    3.8868081972844 
Fe    0.0000000000000    0.0000000000000    7.7819087463513 
Fe    0.0000000000000    0.0000000000000   11.7349506754153 
 O    1.9434040846232    0.0000000000000   -0.0000000000000 
 O    1.9434040846232    0.0000000000000    3.8868081972844 
 O    1.9434040846232    0.0000000000000    7.8517137551032 
 O    1.9434040846232    0.0000000000000   12.1285603216834 
 O    0.0000000000000    1.9434040846232    0.0000000000000 
 O    0.0000000000000    1.9434040846232    3.8868081972844 
 O    0.0000000000000    1.9434040846232    7.8517137551032 
 O    0.0000000000000    1.9434040846232   12.1285603216834 
 O    0.0000000000000    0.0000000000000    1.9434039459060 
 O    0.0000000000000    0.0000000000000    5.8302121431905 
 O    0.0000000000000    0.0000000000000    9.8592729990774 
 O    0.0000000000000    0.0000000000000   14.4126822968944 
 O    0.0000000000000    0.0000000000000   15.8222825159399 
21
FORCE:  0.092546  ...  ENERGY:  -128.57375538
Sr    1.9434040846232    1.9434040846232    1.9434039459060 
Sr    1.9434040846232    1.9434040846232    5.8302121431905 
Sr    1.9434040846232    1.9434040846232    9.6626279379703 
Sr    1.9434040846232    1.9434040846232   13.7358484843597 
Fe    0.0000000000000    0.0000000000000    0.0000000000000 
Fe    0.0000000000000    0.0000000000000    3.8868081972844 
Fe    0.0000000000000    0.0000000000000    7.7821363232348 
Fe    0.0000000000000    0.0000000000000   11.7348843879204 
 O    1.9434040846232    0.0000000000000   -0.0000000000000 
 O    1.9434040846232    0.0000000000000    3.8868081972844 
 O    1.9434040846232    0.0000000000000    7.8516612138630 
 O    1.9434040846232    0.0000000000000   12.1285978947796 
 O    0.0000000000000    1.9434040846232    0.0000000000000 
 O    0.0000000000000    1.9434040846232    3.8868081972844 
 O    0.0000000000000    1.9434040846232    7.8516612138630 
 O    0.0000000000000    1.9434040846232   12.1285978947796 
 O    0.0000000000000    0.0000000000000    1.9434039459060 
 O    0.0000000000000    0.0000000000000    5.8302121431905 
 O    0.0000000000000    0.0000000000000    9.8594193203219 
 O    0.0000000000000    0.0000000000000   14.4111610447070 
 O    0.0000000000000    0.0000000000000   15.8231696075768 
21
FORCE:  0.166534  ...  ENERGY:  -128.57153688
Sr    1.9434040846232    1.9434040846232    1.9434039459060 
Sr    1.9434040846232    1.9434040846232    5.8302121431905 
Sr    1.9434040846232    1.9434040846232    9.6626343528891 
Sr    1.9434040846232    1.9434040846232   13.7358087729572 
Fe    0.0000000000000    0.0000000000000    0.0000000000000 
Fe    0.0000000000000    0.0000000000000    3.8868081972844 
Fe    0.0000000000000    0.0000000000000    7.7820898914411 
Fe    0.0000000000000    0.0000000000000   11.7348978287028 
 O    1.9434040846232    0.0000000000000   -0.0000000000000 
 O    1.9434040846232    0.0000000000000    3.8868081972844 
 O    1.9434040846232    0.0000000000000    7.8516719053944 
 O    1.9434040846232    0.0000000000000   12.1285899524991 
 O    0.0000000000000    1.9434040846232    0.0000000000000 
 O    0.0000000000000    1.9434040846232    3.8868081972844 
 O    0.0000000000000    1.9434040846232    7.8516719053944 
 O    0.0000000000000    1.9434040846232   12.1285899524991 
 O    0.0000000000000    0.0000000000000    1.9434039459060 
 O    0.0000000000000    0.0000000000000    5.8302121431905 
 O    0.0000000000000    0.0000000000000    9.8593893840339 
 O    0.0000000000000    0.0000000000000   14.4114720155357 
 O    0.0000000000000    0.0000000000000   15.8229884624871 
21
FORCE:  0.117417  ...  ENERGY:  -128.57193075
Sr    1.9434040846232    1.9434040846232    1.9434039459060 
Sr    1.9434040846232    1.9434040846232    5.8302121431905 
Sr    1.9434040846232    1.9434040846232    9.6626297708042 
Sr    1.9434040846232    1.9434040846232   13.7358374873559 
Fe    0.0000000000000    0.0000000000000    0.0000000000000 
Fe    0.0000000000000    0.0000000000000    3.8868081972844 
Fe    0.0000000000000    0.0000000000000    7.7821234933971 
Fe    0.0000000000000    0.0000000000000   11.7348880535883 
 O    1.9434040846232    0.0000000000000   -0.0000000000000 
 O    1.9434040846232    0.0000000000000    3.8868081972844 
 O    1.9434040846232    0.0000000000000    7.8516642685862 
 O    1.9434040846232    0.0000000000000   12.1285957564733 
 O    0.0000000000000    1.9434040846232    0.0000000000000 
 O    0.0000000000000    1.9434040846232    3.8868081972844 
 O    0.0000000000000    1.9434040846232    7.8516642685862 
 O    0.0000000000000    1.9434040846232   12.1285957564733 
 O    0.0000000000000    0.0000000000000    1.9434039459060 
 O    0.0000000000000    0.0000000000000    5.8302121431905 
 O    0.0000000000000    0.0000000000000    9.8594110725691 
 O    0.0000000000000    0.0000000000000   14.4112471879032 
 O    0.0000000000000    0.0000000000000   15.8231195101152 
21
FORCE:  0.102993  ...  ENERGY:  -128.57214757
Sr    1.9434040846232    1.9434040846232    1.9434039459060 
Sr    1.9434040846232    1.9434040846232    5.8302121431905 
Sr    1.9434040846232    1.9434040846232    9.6626285489149 
Sr    1.9434040846232    1.9434040846232   13.7358445132195 
Fe    0.0000000000000    0.0000000000000    0.0000000000000 
Fe    0.0000000000000    0.0000000000000    3.8868081972844 
Fe    0.0000000000000    0.0000000000000    7.7821317411499 
Fe    0.0000000000000    0.0000000000000   11.7348856098097 
 O    1.9434040846232    0.0000000000000   -0.0000000000000 
 O    1.9434040846232    0.0000000000000    3.8868081972844 
 O    1.9434040846232    0.0000000000000    7.8516621302799 
 O    1.9434040846232    0.0000000000000   12.1285969783626 
 O    0.0000000000000    1.9434040846232    0.0000000000000 
 O    0.0000000000000    1.9434040846232    3.8868081972844 
 O    0.0000000000000    1.9434040846232    7.8516621302799 
 O    0.0000000000000    1.9434040846232   12.1285969783626 
 O    0.0000000000000    0.0000000000000    1.9434039459060 
 O    0.0000000000000    0.0000000000000    5.8302121431905 
 O    0.0000000000000    0.0000000000000    9.8594162655987 
 O    0.0000000000000    0.0000000000000   14.4111918974121 
 O    0.0000000000000    0.0000000000000   15.8231515847096 
21
FORCE:  0.100310  ...  ENERGY:  -128.57221190
Sr    1.9434040846232    1.9434040846232    1.9434039459060 
Sr    1.9434040846232    1.9434040846232    5.8302121431905 
Sr    1.9434040846232    1.9434040846232    9.6626282434426 
Sr    1.9434040846232    1.9434040846232   13.7358469569981 
Fe    0.0000000000000    0.0000000000000    0.0000000000000 
Fe    0.0000000000000    0.0000000000000    3.8868081972844 
Fe    0.0000000000000    0.0000000000000    7.7821344904008 
Fe    0.0000000000000    0.0000000000000   11.7348846933927 
 O    1.9434040846232    0.0000000000000   -0.0000000000000 
 O    1.9434040846232    0.0000000000000    3.8868081972844 
 O    1.9434040846232    0.0000000000000    7.8516615193353 
 O    1.9434040846232    0.0000000000000   12.1285975893073 
 O    0.0000000000000    1.9434040846232    0.0000000000000 
 O    0.0000000000000    1.9434040846232    3.8868081972844 
 O    0.0000000000000    1.9434040846232    7.8516615193353 
 O    0.0000000000000    1.9434040846232   12.1285975893073 
 O    0.0000000000000    0.0000000000000    1.9434039459060 
 O    0.0000000000000    0.0000000000000    5.8302121431905 
 O    0.0000000000000    0.0000000000000    9.8594180984326 
 O    0.0000000000000    0.0000000000000   14.4111735690724 
 O    0.0000000000000    0.0000000000000   15.8231625817133 
21
FORCE:  0.100563  ...  ENERGY:  -128.57224877
Sr    1.9434040846232    1.9434040846232    1.9434039459060 
Sr    1.9434040846232    1.9434040846232    5.8302121431905 
Sr    1.9434040846232    1.9434040846232    9.6626279379703 
Sr    1.9434040846232    1.9434040846232   13.7358478734150 
Fe    0.0000000000000    0.0000000000000    0.0000000000000 
Fe    0.0000000000000    0.0000000000000    3.8868081972844 
Fe    0.0000000000000    0.0000000000000    7.7821357122901 
Fe    0.0000000000000    0.0000000000000   11.7348843879204 
 O    1.9434040846232    0.0000000000000   -0.0000000000000 
 O    1.9434040846232    0.0000000000000    3.8868081972844 
 O    1.9434040846232    0.0000000000000    7.8516615193353 
 O    1.9434040846232    0.0000000000000   12.1285975893073 
 O    0.0000000000000    1.9434040846232    0.0000000000000 
 O    0.0000000000000    1.9434040846232    3.8868081972844 
 O    0.0000000000000    1.9434040846232    7.8516615193353 
 O    0.0000000000000    1.9434040846232   12.1285975893073 
 O    0.0000000000000    0.0000000000000    1.9434039459060 
 O    0.0000000000000    0.0000000000000    5.8302121431905 
 O    0.0000000000000    0.0000000000000    9.8594187093773 
 O    0.0000000000000    0.0000000000000   14.4111659322643 
 O    0.0000000000000    0.0000000000000   15.8231668583259 
21
FORCE:  0.102146  ...  ENERGY:  -128.57226633
Sr    1.9434040846232    1.9434040846232    1.9434039459060 
Sr    1.9434040846232    1.9434040846232    5.8302121431905 
Sr    1.9434040846232    1.9434040846232    9.6626279379703 
Sr    1.9434040846232    1.9434040846232   13.7358481788874 
Fe    0.0000000000000    0.0000000000000    0.0000000000000 
Fe    0.0000000000000    0.0000000000000    3.8868081972844 
Fe    0.0000000000000    0.0000000000000    7.7821360177625 
Fe    0.0000000000000    0.0000000000000   11.7348843879204 
 O    1.9434040846232    0.0000000000000   -0.0000000000000 
 O    1.9434040846232    0.0000000000000    3.8868081972844 
 O    1.9434040846232    0.0000000000000    7.8516612138630 
 O    1.9434040846232    0.0000000000000   12.1285975893073 
 O    0.0000000000000    1.9434040846232    0.0000000000000 
 O    0.0000000000000    1.9434040846232    3.8868081972844 
 O    0.0000000000000    1.9434040846232    7.8516612138630 
 O    0.0000000000000    1.9434040846232   12.1285975893073 
 O    0.0000000000000    0.0000000000000    1.9434039459060 
 O    0.0000000000000    0.0000000000000    5.8302121431905 
 O    0.0000000000000    0.0000000000000    9.8594190148496 
 O    0.0000000000000    0.0000000000000   14.4111631830133 
 O    0.0000000000000    0.0000000000000   15.8231683856875 
21
FORCE:  0.106699  ...  ENERGY:  -128.57223197
Sr    1.9434040846232    1.9434040846232    1.9434039459060 
Sr    1.9434040846232    1.9434040846232    5.8302121431905 
Sr    1.9434040846232    1.9434040846232    9.6626279379703 
Sr    1.9434040846232    1.9434040846232   13.7358484843597 
Fe    0.0000000000000    0.0000000000000    0.0000000000000 
Fe    0.0000000000000    0.0000000000000    3.8868081972844 
Fe    0.0000000000000    0.0000000000000    7.7821363232348 
Fe    0.0000000000000    0.0000000000000   11.7348843879204 
 O    1.9434040846232    0.0000000000000   -0.0000000000000 
 O    1.9434040846232    0.0000000000000    3.8868081972844 
 O    1.9434040846232    0.0000000000000    7.8516612138630 
 O    1.9434040846232    0.0000000000000   12.1285978947796 
 O    0.0000000000000    1.9434040846232    0.0000000000000 
 O    0.0000000000000    1.9434040846232    3.8868081972844 
 O    0.0000000000000    1.9434040846232    7.8516612138630 
 O    0.0000000000000    1.9434040846232   12.1285978947796 
 O    0.0000000000000    0.0000000000000    1.9434039459060 
 O    0.0000000000000    0.0000000000000    5.8302121431905 
 O    0.0000000000000    0.0000000000000    9.8594193203219 
 O    0.0000000000000    0.0000000000000   14.4111616556517 
 O    0.0000000000000    0.0000000000000   15.8231693021045 
21
FORCE:  0.104209  ...  ENERGY:  -128.57228127
Sr    1.9434040846232    1.9434040846232    1.9434039459060 
Sr    1.9434040846232    1.9434040846232    5.8302121431905 
Sr    1.9434040846232    1.9434040846232    9.6626279379703 
Sr    1.9434040846232    1.9434040846232   13.7358484843597 
Fe    0.0000000000000    0.0000000000000    0.0000000000000 
Fe    0.0000000000000    0.0000000000000    3.8868081972844 
Fe    0.0000000000000    0.0000000000000    7.7821363232348 
Fe    0.0000000000000    0.0000000000000   11.7348843879204 
 O    1.9434040846232    0.0000000000000   -0.0000000000000 
 O    1.9434040846232    0.0000000000000    3.8868081972844 
 O    1.9434040846232    0.0000000000000    7.8516612138630 
 O    1.9434040846232    0.0000000000000   12.1285978947796 
 O    0.0000000000000    1.9434040846232    0.0000000000000 
 O    0.0000000000000    1.9434040846232    3.8868081972844 
 O    0.0000000000000    1.9434040846232    7.8516612138630 
 O    0.0000000000000    1.9434040846232   12.1285978947796 
 O    0.0000000000000    0.0000000000000    1.9434039459060 
 O    0.0000000000000    0.0000000000000    5.8302121431905 
 O    0.0000000000000    0.0000000000000    9.8594193203219 
 O    0.0000000000000    0.0000000000000   14.4111613501794 
 O    0.0000000000000    0.0000000000000   15.8231696075768 
21
FORCE:  0.106632  ...  ENERGY:  -128.57226320
Sr    1.9434040846232    1.9434040846232    1.9434039459060 
Sr    1.9434040846232    1.9434040846232    5.8302121431905 
Sr    1.9434040846232    1.9434040846232    9.6626279379703 
Sr    1.9434040846232    1.9434040846232   13.7358484843597 
Fe    0.0000000000000    0.0000000000000    0.0000000000000 
Fe    0.0000000000000    0.0000000000000    3.8868081972844 
Fe    0.0000000000000    0.0000000000000    7.7821363232348 
Fe    0.0000000000000    0.0000000000000   11.7348843879204 
 O    1.9434040846232    0.0000000000000   -0.0000000000000 
 O    1.9434040846232    0.0000000000000    3.8868081972844 
 O    1.9434040846232    0.0000000000000    7.8516612138630 
 O    1.9434040846232    0.0000000000000   12.1285978947796 
 O    0.0000000000000    1.9434040846232    0.0000000000000 
 O    0.0000000000000    1.9434040846232    3.8868081972844 
 O    0.0000000000000    1.9434040846232    7.8516612138630 
 O    0.0000000000000    1.9434040846232   12.1285978947796 
 O    0.0000000000000    0.0000000000000    1.9434039459060 
 O    0.0000000000000    0.0000000000000    5.8302121431905 
 O    0.0000000000000    0.0000000000000    9.8594193203219 
 O    0.0000000000000    0.0000000000000   14.4111610447070 
 O    0.0000000000000    0.0000000000000   15.8231696075768 
21
FORCE:  0.106075  ...  ENERGY:  -128.57227753
Sr    1.9434040846232    1.9434040846232    1.9434039459060 
Sr    1.9434040846232    1.9434040846232    5.8302121431905 
Sr    1.9434040846232    1.9434040846232    9.6626279379703 
Sr    1.9434040846232    1.9434040846232   13.7358484843597 
Fe    0.0000000000000    0.0000000000000    0.0000000000000 
Fe    0.0000000000000    0.0000000000000    3.8868081972844 
Fe    0.0000000000000    0.0000000000000    7.7821363232348 
Fe    0.0000000000000    0.0000000000000   11.7348843879204 
 O    1.9434040846232    0.0000000000000   -0.0000000000000 
 O    1.9434040846232    0.0000000000000    3.8868081972844 
 O    1.9434040846232    0.0000000000000    7.8516612138630 
 O    1.9434040846232    0.0000000000000   12.1285978947796 
 O    0.0000000000000    1.9434040846232    0.0000000000000 
 O    0.0000000000000    1.9434040846232    3.8868081972844 
 O    0.0000000000000    1.9434040846232    7.8516612138630 
 O    0.0000000000000    1.9434040846232   12.1285978947796 
 O    0.0000000000000    0.0000000000000    1.9434039459060 
 O    0.0000000000000    0.0000000000000    5.8302121431905 
 O    0.0000000000000    0.0000000000000    9.8594193203219 
 O    0.0000000000000    0.0000000000000   14.4111610447070 
 O    0.0000000000000    0.0000000000000   15.8231696075768 
21
FORCE:  0.106378  ...  ENERGY:  -128.57227672
Sr    1.9434040846232    1.9434040846232    1.9434039459060 
Sr    1.9434040846232    1.9434040846232    5.8302121431905 
Sr    1.9434040846232    1.9434040846232    9.6626279379703 
Sr    1.9434040846232    1.9434040846232   13.7358484843597 
Fe    0.0000000000000    0.0000000000000    0.0000000000000 
Fe    0.0000000000000    0.0000000000000    3.8868081972844 
Fe    0.0000000000000    0.0000000000000    7.7821363232348 
Fe    0.0000000000000    0.0000000000000   11.7348843879204 
 O    1.9434040846232    0.0000000000000   -0.0000000000000 
 O    1.9434040846232    0.0000000000000    3.8868081972844 
 O    1.9434040846232    0.0000000000000    7.8516612138630 
 O    1.9434040846232    0.0000000000000   12.1285978947796 
 O    0.0000000000000    1.9434040846232    0.0000000000000 
 O    0.0000000000000    1.9434040846232    3.8868081972844 
 O    0.0000000000000    1.9434040846232    7.8516612138630 
 O    0.0000000000000    1.9434040846232   12.1285978947796 
 O    0.0000000000000    0.0000000000000    1.9434039459060 
 O    0.0000000000000    0.0000000000000    5.8302121431905 
 O    0.0000000000000    0.0000000000000    9.8594193203219 
 O    0.0000000000000    0.0000000000000   14.4111610447070 
 O    0.0000000000000    0.0000000000000   15.8231696075768 
21
FORCE:  0.106687  ...  ENERGY:  -128.57227432
Sr    1.9434040846232    1.9434040846232    1.9434039459060 
Sr    1.9434040846232    1.9434040846232    5.8302121431905 
Sr    1.9434040846232    1.9434040846232    9.6626279379703 
Sr    1.9434040846232    1.9434040846232   13.7358484843597 
Fe    0.0000000000000    0.0000000000000    0.0000000000000 
Fe    0.0000000000000    0.0000000000000    3.8868081972844 
Fe    0.0000000000000    0.0000000000000    7.7821363232348 
Fe    0.0000000000000    0.0000000000000   11.7348843879204 
 O    1.9434040846232    0.0000000000000   -0.0000000000000 
 O    1.9434040846232    0.0000000000000    3.8868081972844 
 O    1.9434040846232    0.0000000000000    7.8516612138630 
 O    1.9434040846232    0.0000000000000   12.1285978947796 
 O    0.0000000000000    1.9434040846232    0.0000000000000 
 O    0.0000000000000    1.9434040846232    3.8868081972844 
 O    0.0000000000000    1.9434040846232    7.8516612138630 
 O    0.0000000000000    1.9434040846232   12.1285978947796 
 O    0.0000000000000    0.0000000000000    1.9434039459060 
 O    0.0000000000000    0.0000000000000    5.8302121431905 
 O    0.0000000000000    0.0000000000000    9.8594193203219 
 O    0.0000000000000    0.0000000000000   14.4111610447070 
 O    0.0000000000000    0.0000000000000   15.8231696075768 
21
FORCE:  0.106273  ...  ENERGY:  -128.57228652
Sr    1.9434040846232    1.9434040846232    1.9434039459060 
Sr    1.9434040846232    1.9434040846232    5.8302121431905 
Sr    1.9434040846232    1.9434040846232    9.6626279379703 
Sr    1.9434040846232    1.9434040846232   13.7358484843597 
Fe    0.0000000000000    0.0000000000000    0.0000000000000 
Fe    0.0000000000000    0.0000000000000    3.8868081972844 
Fe    0.0000000000000    0.0000000000000    7.7821363232348 
Fe    0.0000000000000    0.0000000000000   11.7348843879204 
 O    1.9434040846232    0.0000000000000   -0.0000000000000 
 O    1.9434040846232    0.0000000000000    3.8868081972844 
 O    1.9434040846232    0.0000000000000    7.8516612138630 
 O    1.9434040846232    0.0000000000000   12.1285978947796 
 O    0.0000000000000    1.9434040846232    0.0000000000000 
 O    0.0000000000000    1.9434040846232    3.8868081972844 
 O    0.0000000000000    1.9434040846232    7.8516612138630 
 O    0.0000000000000    1.9434040846232   12.1285978947796 
 O    0.0000000000000    0.0000000000000    1.9434039459060 
 O    0.0000000000000    0.0000000000000    5.8302121431905 
 O    0.0000000000000    0.0000000000000    9.8594193203219 
 O    0.0000000000000    0.0000000000000   14.4111610447070 
 O    0.0000000000000    0.0000000000000   15.8231696075768 
21
FORCE:  0.106162  ...  ENERGY:  -128.57229065
Sr    1.9434040846232    1.9434040846232    1.9434039459060 
Sr    1.9434040846232    1.9434040846232    5.8302121431905 
Sr    1.9434040846232    1.9434040846232    9.6626279379703 
Sr    1.9434040846232    1.9434040846232   13.7358484843597 
Fe    0.0000000000000    0.0000000000000    0.0000000000000 
Fe    0.0000000000000    0.0000000000000    3.8868081972844 
Fe    0.0000000000000    0.0000000000000    7.7821363232348 
Fe    0.0000000000000    0.0000000000000   11.7348843879204 
 O    1.9434040846232    0.0000000000000   -0.0000000000000 
 O    1.9434040846232    0.0000000000000    3.8868081972844 
 O    1.9434040846232    0.0000000000000    7.8516612138630 
 O    1.9434040846232    0.0000000000000   12.1285978947796 
 O    0.0000000000000    1.9434040846232    0.0000000000000 
 O    0.0000000000000    1.9434040846232    3.8868081972844 
 O    0.0000000000000    1.9434040846232    7.8516612138630 
 O    0.0000000000000    1.9434040846232   12.1285978947796 
 O    0.0000000000000    0.0000000000000    1.9434039459060 
 O    0.0000000000000    0.0000000000000    5.8302121431905 
 O    0.0000000000000    0.0000000000000    9.8594193203219 
 O    0.0000000000000    0.0000000000000   14.4111610447070 
 O    0.0000000000000    0.0000000000000   15.8231696075768 
21
FORCE:  0.105807  ...  ENERGY:  -128.57229816
Sr    1.9434040846232    1.9434040846232    1.9434039459060 
Sr    1.9434040846232    1.9434040846232    5.8302121431905 
Sr    1.9434040846232    1.9434040846232    9.6626279379703 
Sr    1.9434040846232    1.9434040846232   13.7358484843597 
Fe    0.0000000000000    0.0000000000000    0.0000000000000 
Fe    0.0000000000000    0.0000000000000    3.8868081972844 
Fe    0.0000000000000    0.0000000000000    7.7821363232348 
Fe    0.0000000000000    0.0000000000000   11.7348843879204 
 O    1.9434040846232    0.0000000000000   -0.0000000000000 
 O    1.9434040846232    0.0000000000000    3.8868081972844 
 O    1.9434040846232    0.0000000000000    7.8516612138630 
 O    1.9434040846232    0.0000000000000   12.1285978947796 
 O    0.0000000000000    1.9434040846232    0.0000000000000 
 O    0.0000000000000    1.9434040846232    3.8868081972844 
 O    0.0000000000000    1.9434040846232    7.8516612138630 
 O    0.0000000000000    1.9434040846232   12.1285978947796 
 O    0.0000000000000    0.0000000000000    1.9434039459060 
 O    0.0000000000000    0.0000000000000    5.8302121431905 
 O    0.0000000000000    0.0000000000000    9.8594193203219 
 O    0.0000000000000    0.0000000000000   14.4111610447070 
 O    0.0000000000000    0.0000000000000   15.8231696075768 
