21
FORCE:  0.117783  ...  ENERGY:  -126.64171115
Sr    1.9434040846232    1.9434040846232    1.9434039459060 
Sr    1.9434040846232    1.9434040846232    5.8302121431905 
Sr    1.9434040846232    1.9434040846232    9.7730751233818 
Sr    1.9434040846232    1.9434040846232   13.5906987262101 
Fe    0.0000000000000    0.0000000000000    0.0000000000000 
Fe    0.0000000000000    0.0000000000000    3.8868081972844 
Fe    0.0000000000000    0.0000000000000    7.8141654021689 
Fe    0.0000000000000    0.0000000000000   11.7497877717989 
 O    1.9434040846232    0.0000000000000   -0.0000000000000 
 O    1.9434040846232    0.0000000000000    3.8868081972844 
 O    1.9434040846232    0.0000000000000    7.8071648928563 
 O    1.9434040846232    0.0000000000000   11.7157013367439 
 O    0.0000000000000    1.9434040846232    0.0000000000000 
 O    0.0000000000000    1.9434040846232    3.8868081972844 
 O    0.0000000000000    1.9434040846232    7.8071648928563 
 O    0.0000000000000    1.9434040846232   11.7157013367439 
 O    0.0000000000000    0.0000000000000    1.9434039459060 
 O    0.0000000000000    0.0000000000000    5.8302121431905 
 O    0.0000000000000    0.0000000000000    9.7971616163476 
 O    0.0000000000000    0.0000000000000   13.6056454871590 
 O    1.9434040846232    1.9434040846232   16.1618822110565 
21
FORCE:  0.045609  ...  ENERGY:  -126.64282541
Sr    1.9434040846232    1.9434040846232    1.9434039459060 
Sr    1.9434040846232    1.9434040846232    5.8302121431905 
Sr    1.9434040846232    1.9434040846232    9.7731658486629 
Sr    1.9434040846232    1.9434040846232   13.5857085302800 
Fe    0.0000000000000    0.0000000000000    0.0000000000000 
Fe    0.0000000000000    0.0000000000000    3.8868081972844 
Fe    0.0000000000000    0.0000000000000    7.8133497910565 
Fe    0.0000000000000    0.0000000000000   11.7498271777290 
 O    1.9434040846232    0.0000000000000   -0.0000000000000 
 O    1.9434040846232    0.0000000000000    3.8868081972844 
 O    1.9434040846232    0.0000000000000    7.8071728351368 
 O    1.9434040846232    0.0000000000000   11.7158155833941 
 O    0.0000000000000    1.9434040846232    0.0000000000000 
 O    0.0000000000000    1.9434040846232    3.8868081972844 
 O    0.0000000000000    1.9434040846232    7.8071728351368 
 O    0.0000000000000    1.9434040846232   11.7158155833941 
 O    0.0000000000000    0.0000000000000    1.9434039459060 
 O    0.0000000000000    0.0000000000000    5.8302121431905 
 O    0.0000000000000    0.0000000000000    9.7966811083776 
 O    0.0000000000000    0.0000000000000   13.6056671756942 
 O    1.9434040846232    1.9434040846232   16.1675643018067 
21
FORCE:  0.017367  ...  ENERGY:  -126.64312263
Sr    1.9434040846232    1.9434040846232    1.9434039459060 
Sr    1.9434040846232    1.9434040846232    5.8302121431905 
Sr    1.9434040846232    1.9434040846232    9.7731618775226 
Sr    1.9434040846232    1.9434040846232   13.5859220554364 
Fe    0.0000000000000    0.0000000000000    0.0000000000000 
Fe    0.0000000000000    0.0000000000000    3.8868081972844 
Fe    0.0000000000000    0.0000000000000    7.8133846149017 
Fe    0.0000000000000    0.0000000000000   11.7498256503674 
 O    1.9434040846232    0.0000000000000   -0.0000000000000 
 O    1.9434040846232    0.0000000000000    3.8868081972844 
 O    1.9434040846232    0.0000000000000    7.8071725296645 
 O    1.9434040846232    0.0000000000000   11.7158106958369 
 O    0.0000000000000    1.9434040846232    0.0000000000000 
 O    0.0000000000000    1.9434040846232    3.8868081972844 
 O    0.0000000000000    1.9434040846232    7.8071725296645 
 O    0.0000000000000    1.9434040846232   11.7158106958369 
 O    0.0000000000000    0.0000000000000    1.9434039459060 
 O    0.0000000000000    0.0000000000000    5.8302121431905 
 O    0.0000000000000    0.0000000000000    9.7967018804958 
 O    0.0000000000000    0.0000000000000   13.6056662592772 
 O    1.9434040846232    1.9434040846232   16.1673211458346 
21
FORCE:  0.019768  ...  ENERGY:  -126.64322599
Sr    1.9434040846232    1.9434040846232    1.9434039459060 
Sr    1.9434040846232    1.9434040846232    5.8302121431905 
Sr    1.9434040846232    1.9434040846232    9.7731545461868 
Sr    1.9434040846232    1.9434040846232   13.5863252789077 
Fe    0.0000000000000    0.0000000000000    0.0000000000000 
Fe    0.0000000000000    0.0000000000000    3.8868081972844 
Fe    0.0000000000000    0.0000000000000    7.8134505969243 
Fe    0.0000000000000    0.0000000000000   11.7498222901718 
 O    1.9434040846232    0.0000000000000   -0.0000000000000 
 O    1.9434040846232    0.0000000000000    3.8868081972844 
 O    1.9434040846232    0.0000000000000    7.8071719187199 
 O    1.9434040846232    0.0000000000000   11.7158015316671 
 O    0.0000000000000    1.9434040846232    0.0000000000000 
 O    0.0000000000000    1.9434040846232    3.8868081972844 
 O    0.0000000000000    1.9434040846232    7.8071719187199 
 O    0.0000000000000    1.9434040846232   11.7158015316671 
 O    0.0000000000000    0.0000000000000    1.9434039459060 
 O    0.0000000000000    0.0000000000000    5.8302121431905 
 O    0.0000000000000    0.0000000000000    9.7967406754813 
 O    0.0000000000000    0.0000000000000   13.6056644264432 
 O    1.9434040846232    1.9434040846232   16.1668620209275 
21
FORCE:  0.024858  ...  ENERGY:  -126.64292405
Sr    1.9434040846232    1.9434040846232    1.9434039459060 
Sr    1.9434040846232    1.9434040846232    5.8302121431905 
Sr    1.9434040846232    1.9434040846232    9.7731591282717 
Sr    1.9434040846232    1.9434040846232   13.5860888433268 
Fe    0.0000000000000    0.0000000000000    0.0000000000000 
Fe    0.0000000000000    0.0000000000000    3.8868081972844 
Fe    0.0000000000000    0.0000000000000    7.8134118019388 
Fe    0.0000000000000    0.0000000000000   11.7498241230057 
 O    1.9434040846232    0.0000000000000   -0.0000000000000 
 O    1.9434040846232    0.0000000000000    3.8868081972844 
 O    1.9434040846232    0.0000000000000    7.8071722241922 
 O    1.9434040846232    0.0000000000000   11.7158070301690 
 O    0.0000000000000    1.9434040846232    0.0000000000000 
 O    0.0000000000000    1.9434040846232    3.8868081972844 
 O    0.0000000000000    1.9434040846232    7.8071722241922 
 O    0.0000000000000    1.9434040846232   11.7158070301690 
 O    0.0000000000000    0.0000000000000    1.9434039459060 
 O    0.0000000000000    0.0000000000000    5.8302121431905 
 O    0.0000000000000    0.0000000000000    9.7967177650568 
 O    0.0000000000000    0.0000000000000   13.6056653428602 
 O    1.9434040846232    1.9434040846232   16.1671314475197 
21
FORCE:  0.056076  ...  ENERGY:  -126.64288433
Sr    1.9434040846232    1.9434040846232    1.9434039459060 
Sr    1.9434040846232    1.9434040846232    5.8302121431905 
Sr    1.9434040846232    1.9434040846232    9.7731563790207 
Sr    1.9434040846232    1.9434040846232   13.5862290551248 
Fe    0.0000000000000    0.0000000000000    0.0000000000000 
Fe    0.0000000000000    0.0000000000000    3.8868081972844 
Fe    0.0000000000000    0.0000000000000    7.8134347123633 
Fe    0.0000000000000    0.0000000000000   11.7498232065888 
 O    1.9434040846232    0.0000000000000   -0.0000000000000 
 O    1.9434040846232    0.0000000000000    3.8868081972844 
 O    1.9434040846232    0.0000000000000    7.8071719187199 
 O    1.9434040846232    0.0000000000000   11.7158036699734 
 O    0.0000000000000    1.9434040846232    0.0000000000000 
 O    0.0000000000000    1.9434040846232    3.8868081972844 
 O    0.0000000000000    1.9434040846232    7.8071719187199 
 O    0.0000000000000    1.9434040846232   11.7158036699734 
 O    0.0000000000000    0.0000000000000    1.9434039459060 
 O    0.0000000000000    0.0000000000000    5.8302121431905 
 O    0.0000000000000    0.0000000000000    9.7967312058392 
 O    0.0000000000000    0.0000000000000   13.6056647319155 
 O    1.9434040846232    1.9434040846232   16.1669716854928 
21
FORCE:  0.019377  ...  ENERGY:  -126.64302180
Sr    1.9434040846232    1.9434040846232    1.9434039459060 
Sr    1.9434040846232    1.9434040846232    5.8302121431905 
Sr    1.9434040846232    1.9434040846232    9.7731551571314 
Sr    1.9434040846232    1.9434040846232   13.5863035903725 
Fe    0.0000000000000    0.0000000000000    0.0000000000000 
Fe    0.0000000000000    0.0000000000000    3.8868081972844 
Fe    0.0000000000000    0.0000000000000    7.8134469312564 
Fe    0.0000000000000    0.0000000000000   11.7498225956441 
 O    1.9434040846232    0.0000000000000   -0.0000000000000 
 O    1.9434040846232    0.0000000000000    3.8868081972844 
 O    1.9434040846232    0.0000000000000    7.8071719187199 
 O    1.9434040846232    0.0000000000000   11.7158021426118 
 O    0.0000000000000    1.9434040846232    0.0000000000000 
 O    0.0000000000000    1.9434040846232    3.8868081972844 
 O    0.0000000000000    1.9434040846232    7.8071719187199 
 O    0.0000000000000    1.9434040846232   11.7158021426118 
 O    0.0000000000000    0.0000000000000    1.9434039459060 
 O    0.0000000000000    0.0000000000000    5.8302121431905 
 O    0.0000000000000    0.0000000000000    9.7967385371750 
 O    0.0000000000000    0.0000000000000   13.6056644264432 
 O    1.9434040846232    1.9434040846232   16.1668867641859 
21
FORCE:  0.067044  ...  ENERGY:  -126.64288084
Sr    1.9434040846232    1.9434040846232    1.9434039459060 
Sr    1.9434040846232    1.9434040846232    5.8302121431905 
Sr    1.9434040846232    1.9434040846232    9.7731548516591 
Sr    1.9434040846232    1.9434040846232   13.5863145873763 
Fe    0.0000000000000    0.0000000000000    0.0000000000000 
Fe    0.0000000000000    0.0000000000000    3.8868081972844 
Fe    0.0000000000000    0.0000000000000    7.8134487640903 
Fe    0.0000000000000    0.0000000000000   11.7498225956441 
 O    1.9434040846232    0.0000000000000   -0.0000000000000 
 O    1.9434040846232    0.0000000000000    3.8868081972844 
 O    1.9434040846232    0.0000000000000    7.8071719187199 
 O    1.9434040846232    0.0000000000000   11.7158018371394 
 O    0.0000000000000    1.9434040846232    0.0000000000000 
 O    0.0000000000000    1.9434040846232    3.8868081972844 
 O    0.0000000000000    1.9434040846232    7.8071719187199 
 O    0.0000000000000    1.9434040846232   11.7158018371394 
 O    0.0000000000000    0.0000000000000    1.9434039459060 
 O    0.0000000000000    0.0000000000000    5.8302121431905 
 O    0.0000000000000    0.0000000000000    9.7967394535920 
 O    0.0000000000000    0.0000000000000   13.6056644264432 
 O    1.9434040846232    1.9434040846232   16.1668742398205 
21
FORCE:  0.022697  ...  ENERGY:  -126.64302958
Sr    1.9434040846232    1.9434040846232    1.9434039459060 
Sr    1.9434040846232    1.9434040846232    5.8302121431905 
Sr    1.9434040846232    1.9434040846232    9.7731548516591 
Sr    1.9434040846232    1.9434040846232   13.5863234460738 
Fe    0.0000000000000    0.0000000000000    0.0000000000000 
Fe    0.0000000000000    0.0000000000000    3.8868081972844 
Fe    0.0000000000000    0.0000000000000    7.8134502914520 
Fe    0.0000000000000    0.0000000000000   11.7498222901718 
 O    1.9434040846232    0.0000000000000   -0.0000000000000 
 O    1.9434040846232    0.0000000000000    3.8868081972844 
 O    1.9434040846232    0.0000000000000    7.8071719187199 
 O    1.9434040846232    0.0000000000000   11.7158015316671 
 O    0.0000000000000    1.9434040846232    0.0000000000000 
 O    0.0000000000000    1.9434040846232    3.8868081972844 
 O    0.0000000000000    1.9434040846232    7.8071719187199 
 O    0.0000000000000    1.9434040846232   11.7158015316671 
 O    0.0000000000000    0.0000000000000    1.9434039459060 
 O    0.0000000000000    0.0000000000000    5.8302121431905 
 O    0.0000000000000    0.0000000000000    9.7967403700090 
 O    0.0000000000000    0.0000000000000   13.6056644264432 
 O    1.9434040846232    1.9434040846232   16.1668641592338 
21
FORCE:  0.027730  ...  ENERGY:  -126.64295035
Sr    1.9434040846232    1.9434040846232    1.9434039459060 
Sr    1.9434040846232    1.9434040846232    5.8302121431905 
Sr    1.9434040846232    1.9434040846232    9.7731545461868 
Sr    1.9434040846232    1.9434040846232   13.5863246679631 
Fe    0.0000000000000    0.0000000000000    0.0000000000000 
Fe    0.0000000000000    0.0000000000000    3.8868081972844 
Fe    0.0000000000000    0.0000000000000    7.8134502914520 
Fe    0.0000000000000    0.0000000000000   11.7498222901718 
 O    1.9434040846232    0.0000000000000   -0.0000000000000 
 O    1.9434040846232    0.0000000000000    3.8868081972844 
 O    1.9434040846232    0.0000000000000    7.8071719187199 
 O    1.9434040846232    0.0000000000000   11.7158015316671 
 O    0.0000000000000    1.9434040846232    0.0000000000000 
 O    0.0000000000000    1.9434040846232    3.8868081972844 
 O    0.0000000000000    1.9434040846232    7.8071719187199 
 O    0.0000000000000    1.9434040846232   11.7158015316671 
 O    0.0000000000000    0.0000000000000    1.9434039459060 
 O    0.0000000000000    0.0000000000000    5.8302121431905 
 O    0.0000000000000    0.0000000000000    9.7967403700090 
 O    0.0000000000000    0.0000000000000   13.6056644264432 
 O    1.9434040846232    1.9434040846232   16.1668629373445 
21
FORCE:  0.025269  ...  ENERGY:  -126.64295659
Sr    1.9434040846232    1.9434040846232    1.9434039459060 
Sr    1.9434040846232    1.9434040846232    5.8302121431905 
Sr    1.9434040846232    1.9434040846232    9.7731545461868 
Sr    1.9434040846232    1.9434040846232   13.5863249734354 
Fe    0.0000000000000    0.0000000000000    0.0000000000000 
Fe    0.0000000000000    0.0000000000000    3.8868081972844 
Fe    0.0000000000000    0.0000000000000    7.8134505969243 
Fe    0.0000000000000    0.0000000000000   11.7498222901718 
 O    1.9434040846232    0.0000000000000   -0.0000000000000 
 O    1.9434040846232    0.0000000000000    3.8868081972844 
 O    1.9434040846232    0.0000000000000    7.8071719187199 
 O    1.9434040846232    0.0000000000000   11.7158015316671 
 O    0.0000000000000    1.9434040846232    0.0000000000000 
 O    0.0000000000000    1.9434040846232    3.8868081972844 
 O    0.0000000000000    1.9434040846232    7.8071719187199 
 O    0.0000000000000    1.9434040846232   11.7158015316671 
 O    0.0000000000000    0.0000000000000    1.9434039459060 
 O    0.0000000000000    0.0000000000000    5.8302121431905 
 O    0.0000000000000    0.0000000000000    9.7967406754813 
 O    0.0000000000000    0.0000000000000   13.6056644264432 
 O    1.9434040846232    1.9434040846232   16.1668623263998 
21
FORCE:  0.038297  ...  ENERGY:  -126.64288308
Sr    1.9434040846232    1.9434040846232    1.9434039459060 
Sr    1.9434040846232    1.9434040846232    5.8302121431905 
Sr    1.9434040846232    1.9434040846232    9.7731545461868 
Sr    1.9434040846232    1.9434040846232   13.5863252789077 
Fe    0.0000000000000    0.0000000000000    0.0000000000000 
Fe    0.0000000000000    0.0000000000000    3.8868081972844 
Fe    0.0000000000000    0.0000000000000    7.8134505969243 
Fe    0.0000000000000    0.0000000000000   11.7498222901718 
 O    1.9434040846232    0.0000000000000   -0.0000000000000 
 O    1.9434040846232    0.0000000000000    3.8868081972844 
 O    1.9434040846232    0.0000000000000    7.8071719187199 
 O    1.9434040846232    0.0000000000000   11.7158015316671 
 O    0.0000000000000    1.9434040846232    0.0000000000000 
 O    0.0000000000000    1.9434040846232    3.8868081972844 
 O    0.0000000000000    1.9434040846232    7.8071719187199 
 O    0.0000000000000    1.9434040846232   11.7158015316671 
 O    0.0000000000000    0.0000000000000    1.9434039459060 
 O    0.0000000000000    0.0000000000000    5.8302121431905 
 O    0.0000000000000    0.0000000000000    9.7967406754813 
 O    0.0000000000000    0.0000000000000   13.6056644264432 
 O    1.9434040846232    1.9434040846232   16.1668620209275 
21
FORCE:  0.031718  ...  ENERGY:  -126.64294965
Sr    1.9434040846232    1.9434040846232    1.9434039459060 
Sr    1.9434040846232    1.9434040846232    5.8302121431905 
Sr    1.9434040846232    1.9434040846232    9.7731545461868 
Sr    1.9434040846232    1.9434040846232   13.5863252789077 
Fe    0.0000000000000    0.0000000000000    0.0000000000000 
Fe    0.0000000000000    0.0000000000000    3.8868081972844 
Fe    0.0000000000000    0.0000000000000    7.8134505969243 
Fe    0.0000000000000    0.0000000000000   11.7498222901718 
 O    1.9434040846232    0.0000000000000   -0.0000000000000 
 O    1.9434040846232    0.0000000000000    3.8868081972844 
 O    1.9434040846232    0.0000000000000    7.8071719187199 
 O    1.9434040846232    0.0000000000000   11.7158015316671 
 O    0.0000000000000    1.9434040846232    0.0000000000000 
 O    0.0000000000000    1.9434040846232    3.8868081972844 
 O    0.0000000000000    1.9434040846232    7.8071719187199 
 O    0.0000000000000    1.9434040846232   11.7158015316671 
 O    0.0000000000000    0.0000000000000    1.9434039459060 
 O    0.0000000000000    0.0000000000000    5.8302121431905 
 O    0.0000000000000    0.0000000000000    9.7967406754813 
 O    0.0000000000000    0.0000000000000   13.6056644264432 
 O    1.9434040846232    1.9434040846232   16.1668620209275 
21
FORCE:  0.053000  ...  ENERGY:  -126.64287981
Sr    1.9434040846232    1.9434040846232    1.9434039459060 
Sr    1.9434040846232    1.9434040846232    5.8302121431905 
Sr    1.9434040846232    1.9434040846232    9.7731545461868 
Sr    1.9434040846232    1.9434040846232   13.5863252789077 
Fe    0.0000000000000    0.0000000000000    0.0000000000000 
Fe    0.0000000000000    0.0000000000000    3.8868081972844 
Fe    0.0000000000000    0.0000000000000    7.8134505969243 
Fe    0.0000000000000    0.0000000000000   11.7498222901718 
 O    1.9434040846232    0.0000000000000   -0.0000000000000 
 O    1.9434040846232    0.0000000000000    3.8868081972844 
 O    1.9434040846232    0.0000000000000    7.8071719187199 
 O    1.9434040846232    0.0000000000000   11.7158015316671 
 O    0.0000000000000    1.9434040846232    0.0000000000000 
 O    0.0000000000000    1.9434040846232    3.8868081972844 
 O    0.0000000000000    1.9434040846232    7.8071719187199 
 O    0.0000000000000    1.9434040846232   11.7158015316671 
 O    0.0000000000000    0.0000000000000    1.9434039459060 
 O    0.0000000000000    0.0000000000000    5.8302121431905 
 O    0.0000000000000    0.0000000000000    9.7967406754813 
 O    0.0000000000000    0.0000000000000   13.6056644264432 
 O    1.9434040846232    1.9434040846232   16.1668620209275 
21
FORCE:  0.040316  ...  ENERGY:  -126.64289841
Sr    1.9434040846232    1.9434040846232    1.9434039459060 
Sr    1.9434040846232    1.9434040846232    5.8302121431905 
Sr    1.9434040846232    1.9434040846232    9.7731545461868 
Sr    1.9434040846232    1.9434040846232   13.5863252789077 
Fe    0.0000000000000    0.0000000000000    0.0000000000000 
Fe    0.0000000000000    0.0000000000000    3.8868081972844 
Fe    0.0000000000000    0.0000000000000    7.8134505969243 
Fe    0.0000000000000    0.0000000000000   11.7498222901718 
 O    1.9434040846232    0.0000000000000   -0.0000000000000 
 O    1.9434040846232    0.0000000000000    3.8868081972844 
 O    1.9434040846232    0.0000000000000    7.8071719187199 
 O    1.9434040846232    0.0000000000000   11.7158015316671 
 O    0.0000000000000    1.9434040846232    0.0000000000000 
 O    0.0000000000000    1.9434040846232    3.8868081972844 
 O    0.0000000000000    1.9434040846232    7.8071719187199 
 O    0.0000000000000    1.9434040846232   11.7158015316671 
 O    0.0000000000000    0.0000000000000    1.9434039459060 
 O    0.0000000000000    0.0000000000000    5.8302121431905 
 O    0.0000000000000    0.0000000000000    9.7967406754813 
 O    0.0000000000000    0.0000000000000   13.6056644264432 
 O    1.9434040846232    1.9434040846232   16.1668620209275 
21
FORCE:  0.016231  ...  ENERGY:  -126.64307159
Sr    1.9434040846232    1.9434040846232    1.9434039459060 
Sr    1.9434040846232    1.9434040846232    5.8302121431905 
Sr    1.9434040846232    1.9434040846232    9.7731545461868 
Sr    1.9434040846232    1.9434040846232   13.5863252789077 
Fe    0.0000000000000    0.0000000000000    0.0000000000000 
Fe    0.0000000000000    0.0000000000000    3.8868081972844 
Fe    0.0000000000000    0.0000000000000    7.8134505969243 
Fe    0.0000000000000    0.0000000000000   11.7498222901718 
 O    1.9434040846232    0.0000000000000   -0.0000000000000 
 O    1.9434040846232    0.0000000000000    3.8868081972844 
 O    1.9434040846232    0.0000000000000    7.8071719187199 
 O    1.9434040846232    0.0000000000000   11.7158015316671 
 O    0.0000000000000    1.9434040846232    0.0000000000000 
 O    0.0000000000000    1.9434040846232    3.8868081972844 
 O    0.0000000000000    1.9434040846232    7.8071719187199 
 O    0.0000000000000    1.9434040846232   11.7158015316671 
 O    0.0000000000000    0.0000000000000    1.9434039459060 
 O    0.0000000000000    0.0000000000000    5.8302121431905 
 O    0.0000000000000    0.0000000000000    9.7967406754813 
 O    0.0000000000000    0.0000000000000   13.6056644264432 
 O    1.9434040846232    1.9434040846232   16.1668620209275 
21
FORCE:  0.065622  ...  ENERGY:  -126.64283430
Sr    1.9434040846232    1.9434040846232    1.9434039459060 
Sr    1.9434040846232    1.9434040846232    5.8302121431905 
Sr    1.9434040846232    1.9434040846232    9.7731545461868 
Sr    1.9434040846232    1.9434040846232   13.5863252789077 
Fe    0.0000000000000    0.0000000000000    0.0000000000000 
Fe    0.0000000000000    0.0000000000000    3.8868081972844 
Fe    0.0000000000000    0.0000000000000    7.8134505969243 
Fe    0.0000000000000    0.0000000000000   11.7498222901718 
 O    1.9434040846232    0.0000000000000   -0.0000000000000 
 O    1.9434040846232    0.0000000000000    3.8868081972844 
 O    1.9434040846232    0.0000000000000    7.8071719187199 
 O    1.9434040846232    0.0000000000000   11.7158015316671 
 O    0.0000000000000    1.9434040846232    0.0000000000000 
 O    0.0000000000000    1.9434040846232    3.8868081972844 
 O    0.0000000000000    1.9434040846232    7.8071719187199 
 O    0.0000000000000    1.9434040846232   11.7158015316671 
 O    0.0000000000000    0.0000000000000    1.9434039459060 
 O    0.0000000000000    0.0000000000000    5.8302121431905 
 O    0.0000000000000    0.0000000000000    9.7967406754813 
 O    0.0000000000000    0.0000000000000   13.6056644264432 
 O    1.9434040846232    1.9434040846232   16.1668620209275 
21
FORCE:  0.028315  ...  ENERGY:  -126.64299363
Sr    1.9434040846232    1.9434040846232    1.9434039459060 
Sr    1.9434040846232    1.9434040846232    5.8302121431905 
Sr    1.9434040846232    1.9434040846232    9.7731545461868 
Sr    1.9434040846232    1.9434040846232   13.5863252789077 
Fe    0.0000000000000    0.0000000000000    0.0000000000000 
Fe    0.0000000000000    0.0000000000000    3.8868081972844 
Fe    0.0000000000000    0.0000000000000    7.8134505969243 
Fe    0.0000000000000    0.0000000000000   11.7498222901718 
 O    1.9434040846232    0.0000000000000   -0.0000000000000 
 O    1.9434040846232    0.0000000000000    3.8868081972844 
 O    1.9434040846232    0.0000000000000    7.8071719187199 
 O    1.9434040846232    0.0000000000000   11.7158015316671 
 O    0.0000000000000    1.9434040846232    0.0000000000000 
 O    0.0000000000000    1.9434040846232    3.8868081972844 
 O    0.0000000000000    1.9434040846232    7.8071719187199 
 O    0.0000000000000    1.9434040846232   11.7158015316671 
 O    0.0000000000000    0.0000000000000    1.9434039459060 
 O    0.0000000000000    0.0000000000000    5.8302121431905 
 O    0.0000000000000    0.0000000000000    9.7967406754813 
 O    0.0000000000000    0.0000000000000   13.6056644264432 
 O    1.9434040846232    1.9434040846232   16.1668620209275 
21
FORCE:  0.008052  ...  ENERGY:  -126.64294470
Sr    1.9434040846232    1.9434040846232    1.9434039459060 
Sr    1.9434040846232    1.9434040846232    5.8302121431905 
Sr    1.9434040846232    1.9434040846232    9.7730751233818 
Sr    1.9434040846232    1.9434040846232   13.5906987262101 
Fe    0.0000000000000    0.0000000000000    0.0000000000000 
Fe    0.0000000000000    0.0000000000000    3.8868081972844 
Fe    0.0000000000000    0.0000000000000    7.8141654021689 
Fe    0.0000000000000    0.0000000000000   11.7497877717989 
 O    1.9434040846232    0.0000000000000   -0.0000000000000 
 O    1.9434040846232    0.0000000000000    3.8868081972844 
 O    1.9434040846232    0.0000000000000    7.8071648928563 
 O    1.9434040846232    0.0000000000000   11.7157013367439 
 O    0.0000000000000    1.9434040846232    0.0000000000000 
 O    0.0000000000000    1.9434040846232    3.8868081972844 
 O    0.0000000000000    1.9434040846232    7.8071648928563 
 O    0.0000000000000    1.9434040846232   11.7157013367439 
 O    0.0000000000000    0.0000000000000    1.9434039459060 
 O    0.0000000000000    0.0000000000000    5.8302121431905 
 O    0.0000000000000    0.0000000000000    9.7971616163476 
 O    0.0000000000000    0.0000000000000   13.6056454871590 
 O    1.9434040846232    1.9434040846232   16.1618822110565 
