21
FORCE:  4.821831  ...  ENERGY:  -123.99507490
Sr    1.9434040846232    1.9434040846232    1.9434039459060 
Sr    1.9434040846232    1.9434040846232    5.8302121431905 
Sr    1.9434040846232    1.9434040846232    9.7828071662404 
Sr    1.9434040846232    1.9434040846232   13.5925847123556 
Fe    0.0000000000000    0.0000000000000    0.0000000000000 
Fe    0.0000000000000    0.0000000000000    3.8868081972844 
Fe    0.0000000000000    0.0000000000000    7.8180763643686 
Fe    0.0000000000000    0.0000000000000   11.7611272100409 
 O    1.9434040846232    0.0000000000000   -0.0000000000000 
 O    1.9434040846232    0.0000000000000    3.8868081972844 
 O    1.9434040846232    0.0000000000000    7.8089738999755 
 O    1.9434040846232    0.0000000000000   11.7222179778909 
 O    0.0000000000000    1.9434040846232    0.0000000000000 
 O    0.0000000000000    1.9434040846232    3.8868081972844 
 O    0.0000000000000    1.9434040846232    7.8089738999755 
 O    0.0000000000000    1.9434040846232   11.7222179778909 
 O    0.0000000000000    0.0000000000000    1.9434039459060 
 O    0.0000000000000    0.0000000000000    5.8302121431905 
 O    0.0000000000000    0.0000000000000    9.7990317179321 
 O    0.0000000000000    0.0000000000000   13.6226413564758 
 O    1.9434040846232    1.9434040846232   16.1713326084298 
21
FORCE:  0.695790  ...  ENERGY:  -126.33771141
Sr    1.9434040846232    1.9434040846232    1.9434039459060 
Sr    1.9434040846232    1.9434040846232    5.8302121431905 
Sr    1.9434040846232    1.9434040846232    9.8085719241695 
Sr    1.9434040846232    1.9434040846232   13.5677791375326 
Fe    0.0000000000000    0.0000000000000    0.0000000000000 
Fe    0.0000000000000    0.0000000000000    3.8868081972844 
Fe    0.0000000000000    0.0000000000000    7.8182330716722 
Fe    0.0000000000000    0.0000000000000   11.7591190349647 
 O    1.9434040846232    0.0000000000000   -0.0000000000000 
 O    1.9434040846232    0.0000000000000    3.8868081972844 
 O    1.9434040846232    0.0000000000000    7.8289621762053 
 O    1.9434040846232    0.0000000000000   11.7421576840208 
 O    0.0000000000000    1.9434040846232    0.0000000000000 
 O    0.0000000000000    1.9434040846232    3.8868081972844 
 O    0.0000000000000    1.9434040846232    7.8289621762053 
 O    0.0000000000000    1.9434040846232   11.7421576840208 
 O    0.0000000000000    0.0000000000000    1.9434039459060 
 O    0.0000000000000    0.0000000000000    5.8302121431905 
 O    0.0000000000000    0.0000000000000    9.8182294317803 
 O    0.0000000000000    0.0000000000000   13.6414541751922 
 O    1.9434040846232    1.9434040846232   15.9387145151775 
21
FORCE:  0.666282  ...  ENERGY:  -126.34036325
Sr    1.9434040846232    1.9434040846232    1.9434039459060 
Sr    1.9434040846232    1.9434040846232    5.8302121431905 
Sr    1.9434040846232    1.9434040846232    9.8083525950388 
Sr    1.9434040846232    1.9434040846232   13.5679902189104 
Fe    0.0000000000000    0.0000000000000    0.0000000000000 
Fe    0.0000000000000    0.0000000000000    3.8868081972844 
Fe    0.0000000000000    0.0000000000000    7.8182315443106 
Fe    0.0000000000000    0.0000000000000   11.7591361414150 
 O    1.9434040846232    0.0000000000000   -0.0000000000000 
 O    1.9434040846232    0.0000000000000    3.8868081972844 
 O    1.9434040846232    0.0000000000000    7.8287920281193 
 O    1.9434040846232    0.0000000000000   11.7419878414071 
 O    0.0000000000000    1.9434040846232    0.0000000000000 
 O    0.0000000000000    1.9434040846232    3.8868081972844 
 O    0.0000000000000    1.9434040846232    7.8287920281193 
 O    0.0000000000000    1.9434040846232   11.7419878414071 
 O    0.0000000000000    0.0000000000000    1.9434039459060 
 O    0.0000000000000    0.0000000000000    5.8302121431905 
 O    0.0000000000000    0.0000000000000    9.8180660040855 
 O    0.0000000000000    0.0000000000000   13.6412941076930 
 O    1.9434040846232    1.9434040846232   15.9406945867997 
21
FORCE:  0.635088  ...  ENERGY:  -126.32695861
Sr    1.9434040846232    1.9434040846232    1.9434039459060 
Sr    1.9434040846232    1.9434040846232    5.8302121431905 
Sr    1.9434040846232    1.9434040846232    9.8076600892741 
Sr    1.9434040846232    1.9434040846232   13.5686570649997 
Fe    0.0000000000000    0.0000000000000    0.0000000000000 
Fe    0.0000000000000    0.0000000000000    3.8868081972844 
Fe    0.0000000000000    0.0000000000000    7.8182272676980 
Fe    0.0000000000000    0.0000000000000   11.7591902100168 
 O    1.9434040846232    0.0000000000000   -0.0000000000000 
 O    1.9434040846232    0.0000000000000    3.8868081972844 
 O    1.9434040846232    0.0000000000000    7.8282547022965 
 O    1.9434040846232    0.0000000000000   11.7414517374736 
 O    0.0000000000000    1.9434040846232    0.0000000000000 
 O    0.0000000000000    1.9434040846232    3.8868081972844 
 O    0.0000000000000    1.9434040846232    7.8282547022965 
 O    0.0000000000000    1.9434040846232   11.7414517374736 
 O    0.0000000000000    0.0000000000000    1.9434039459060 
 O    0.0000000000000    0.0000000000000    5.8302121431905 
 O    0.0000000000000    0.0000000000000    9.8175500613256 
 O    0.0000000000000    0.0000000000000   13.6407882455199 
 O    1.9434040846232    1.9434040846232   15.9469472998563 
21
FORCE:  0.413584  ...  ENERGY:  -126.35601827
Sr    1.9434040846232    1.9434040846232    1.9434039459060 
Sr    1.9434040846232    1.9434040846232    5.8302121431905 
Sr    1.9434040846232    1.9434040846232    9.7952337804934 
Sr    1.9434040846232    1.9434040846232   13.5806208886776 
Fe    0.0000000000000    0.0000000000000    0.0000000000000 
Fe    0.0000000000000    0.0000000000000    3.8868081972844 
Fe    0.0000000000000    0.0000000000000    7.8181518160333 
Fe    0.0000000000000    0.0000000000000   11.7601588627650 
 O    1.9434040846232    0.0000000000000   -0.0000000000000 
 O    1.9434040846232    0.0000000000000    3.8868081972844 
 O    1.9434040846232    0.0000000000000    7.8186143011360 
 O    1.9434040846232    0.0000000000000   11.7318348576823 
 O    0.0000000000000    1.9434040846232    0.0000000000000 
 O    0.0000000000000    1.9434040846232    3.8868081972844 
 O    0.0000000000000    1.9434040846232    7.8186143011360 
 O    0.0000000000000    1.9434040846232   11.7318348576823 
 O    0.0000000000000    0.0000000000000    1.9434039459060 
 O    0.0000000000000    0.0000000000000    5.8302121431905 
 O    0.0000000000000    0.0000000000000    9.8082908896288 
 O    0.0000000000000    0.0000000000000   13.6317148009978 
 O    1.9434040846232    1.9434040846232   16.0591399541430 
21
FORCE:  0.950282  ...  ENERGY:  -126.65188124
Sr    1.9434040846232    1.9434040846232    1.9434039459060 
Sr    1.9434040846232    1.9434040846232    5.8302121431905 
Sr    1.9434040846232    1.9434040846232    9.7960041817015 
Sr    1.9434040846232    1.9434040846232   13.5798788963959 
Fe    0.0000000000000    0.0000000000000    0.0000000000000 
Fe    0.0000000000000    0.0000000000000    3.8868081972844 
Fe    0.0000000000000    0.0000000000000    7.8181567035905 
Fe    0.0000000000000    0.0000000000000   11.7600986847166 
 O    1.9434040846232    0.0000000000000   -0.0000000000000 
 O    1.9434040846232    0.0000000000000    3.8868081972844 
 O    1.9434040846232    0.0000000000000    7.8192121104795 
 O    1.9434040846232    0.0000000000000   11.7324311396641 
 O    0.0000000000000    1.9434040846232    0.0000000000000 
 O    0.0000000000000    1.9434040846232    3.8868081972844 
 O    0.0000000000000    1.9434040846232    7.8192121104795 
 O    0.0000000000000    1.9434040846232   11.7324311396641 
 O    0.0000000000000    0.0000000000000    1.9434039459060 
 O    0.0000000000000    0.0000000000000    5.8302121431905 
 O    0.0000000000000    0.0000000000000    9.8088648721308 
 O    0.0000000000000    0.0000000000000   13.6322774810237 
 O    1.9434040846232    1.9434040846232   16.0521825164285 
21
FORCE:  0.372696  ...  ENERGY:  -126.62049446
Sr    1.9434040846232    1.9434040846232    1.9434039459060 
Sr    1.9434040846232    1.9434040846232    5.8302121431905 
Sr    1.9434040846232    1.9434040846232    9.7952533307223 
Sr    1.9434040846232    1.9434040846232   13.5806019493934 
Fe    0.0000000000000    0.0000000000000    0.0000000000000 
Fe    0.0000000000000    0.0000000000000    3.8868081972844 
Fe    0.0000000000000    0.0000000000000    7.8181521215056 
Fe    0.0000000000000    0.0000000000000   11.7601573354034 
 O    1.9434040846232    0.0000000000000   -0.0000000000000 
 O    1.9434040846232    0.0000000000000    3.8868081972844 
 O    1.9434040846232    0.0000000000000    7.8186295747523 
 O    1.9434040846232    0.0000000000000   11.7318501312986 
 O    0.0000000000000    1.9434040846232    0.0000000000000 
 O    0.0000000000000    1.9434040846232    3.8868081972844 
 O    0.0000000000000    1.9434040846232    7.8186295747523 
 O    0.0000000000000    1.9434040846232   11.7318501312986 
 O    0.0000000000000    0.0000000000000    1.9434039459060 
 O    0.0000000000000    0.0000000000000    5.8302121431905 
 O    0.0000000000000    0.0000000000000    9.8083055523005 
 O    0.0000000000000    0.0000000000000   13.6317294636695 
 O    1.9434040846232    1.9434040846232   16.0589612528319 
21
FORCE:  0.274244  ...  ENERGY:  -126.62201447
Sr    1.9434040846232    1.9434040846232    1.9434039459060 
Sr    1.9434040846232    1.9434040846232    5.8302121431905 
Sr    1.9434040846232    1.9434040846232    9.7952346969104 
Sr    1.9434040846232    1.9434040846232   13.5806199722607 
Fe    0.0000000000000    0.0000000000000    0.0000000000000 
Fe    0.0000000000000    0.0000000000000    3.8868081972844 
Fe    0.0000000000000    0.0000000000000    7.8181518160333 
Fe    0.0000000000000    0.0000000000000   11.7601585572927 
 O    1.9434040846232    0.0000000000000   -0.0000000000000 
 O    1.9434040846232    0.0000000000000    3.8868081972844 
 O    1.9434040846232    0.0000000000000    7.8186152175530 
 O    1.9434040846232    0.0000000000000   11.7318357740992 
 O    0.0000000000000    1.9434040846232    0.0000000000000 
 O    0.0000000000000    1.9434040846232    3.8868081972844 
 O    0.0000000000000    1.9434040846232    7.8186152175530 
 O    0.0000000000000    1.9434040846232   11.7318357740992 
 O    0.0000000000000    0.0000000000000    1.9434039459060 
 O    0.0000000000000    0.0000000000000    5.8302121431905 
 O    0.0000000000000    0.0000000000000    9.8082918060458 
 O    0.0000000000000    0.0000000000000   13.6317157174148 
 O    1.9434040846232    1.9434040846232   16.0591298735562 
21
FORCE:  0.350195  ...  ENERGY:  -126.62199230
Sr    1.9434040846232    1.9434040846232    1.9434039459060 
Sr    1.9434040846232    1.9434040846232    5.8302121431905 
Sr    1.9434040846232    1.9434040846232    9.7952337804934 
Sr    1.9434040846232    1.9434040846232   13.5806208886776 
Fe    0.0000000000000    0.0000000000000    0.0000000000000 
Fe    0.0000000000000    0.0000000000000    3.8868081972844 
Fe    0.0000000000000    0.0000000000000    7.8181518160333 
Fe    0.0000000000000    0.0000000000000   11.7601588627650 
 O    1.9434040846232    0.0000000000000   -0.0000000000000 
 O    1.9434040846232    0.0000000000000    3.8868081972844 
 O    1.9434040846232    0.0000000000000    7.8186143011360 
 O    1.9434040846232    0.0000000000000   11.7318348576823 
 O    0.0000000000000    1.9434040846232    0.0000000000000 
 O    0.0000000000000    1.9434040846232    3.8868081972844 
 O    0.0000000000000    1.9434040846232    7.8186143011360 
 O    0.0000000000000    1.9434040846232   11.7318348576823 
 O    0.0000000000000    0.0000000000000    1.9434039459060 
 O    0.0000000000000    0.0000000000000    5.8302121431905 
 O    0.0000000000000    0.0000000000000    9.8082908896288 
 O    0.0000000000000    0.0000000000000   13.6317151064701 
 O    1.9434040846232    1.9434040846232   16.0591390377261 
21
FORCE:  0.320770  ...  ENERGY:  -126.62188171
Sr    1.9434040846232    1.9434040846232    1.9434039459060 
Sr    1.9434040846232    1.9434040846232    5.8302121431905 
Sr    1.9434040846232    1.9434040846232    9.7952337804934 
Sr    1.9434040846232    1.9434040846232   13.5806208886776 
Fe    0.0000000000000    0.0000000000000    0.0000000000000 
Fe    0.0000000000000    0.0000000000000    3.8868081972844 
Fe    0.0000000000000    0.0000000000000    7.8181518160333 
Fe    0.0000000000000    0.0000000000000   11.7601588627650 
 O    1.9434040846232    0.0000000000000   -0.0000000000000 
 O    1.9434040846232    0.0000000000000    3.8868081972844 
 O    1.9434040846232    0.0000000000000    7.8186143011360 
 O    1.9434040846232    0.0000000000000   11.7318348576823 
 O    0.0000000000000    1.9434040846232    0.0000000000000 
 O    0.0000000000000    1.9434040846232    3.8868081972844 
 O    0.0000000000000    1.9434040846232    7.8186143011360 
 O    0.0000000000000    1.9434040846232   11.7318348576823 
 O    0.0000000000000    0.0000000000000    1.9434039459060 
 O    0.0000000000000    0.0000000000000    5.8302121431905 
 O    0.0000000000000    0.0000000000000    9.8082908896288 
 O    0.0000000000000    0.0000000000000   13.6317148009978 
 O    1.9434040846232    1.9434040846232   16.0591399541430 
21
FORCE:  0.339493  ...  ENERGY:  -126.62201430
Sr    1.9434040846232    1.9434040846232    1.9434039459060 
Sr    1.9434040846232    1.9434040846232    5.8302121431905 
Sr    1.9434040846232    1.9434040846232    9.7952337804934 
Sr    1.9434040846232    1.9434040846232   13.5806208886776 
Fe    0.0000000000000    0.0000000000000    0.0000000000000 
Fe    0.0000000000000    0.0000000000000    3.8868081972844 
Fe    0.0000000000000    0.0000000000000    7.8181518160333 
Fe    0.0000000000000    0.0000000000000   11.7601588627650 
 O    1.9434040846232    0.0000000000000   -0.0000000000000 
 O    1.9434040846232    0.0000000000000    3.8868081972844 
 O    1.9434040846232    0.0000000000000    7.8186143011360 
 O    1.9434040846232    0.0000000000000   11.7318348576823 
 O    0.0000000000000    1.9434040846232    0.0000000000000 
 O    0.0000000000000    1.9434040846232    3.8868081972844 
 O    0.0000000000000    1.9434040846232    7.8186143011360 
 O    0.0000000000000    1.9434040846232   11.7318348576823 
 O    0.0000000000000    0.0000000000000    1.9434039459060 
 O    0.0000000000000    0.0000000000000    5.8302121431905 
 O    0.0000000000000    0.0000000000000    9.8082908896288 
 O    0.0000000000000    0.0000000000000   13.6317148009978 
 O    1.9434040846232    1.9434040846232   16.0591399541430 
