21
FORCE:  2.006249  ...  ENERGY:  -132.53792654
Sr    1.9434040846232    1.9434040846232    1.9434039459060 
Sr    1.9434040846232    1.9434040846232    5.8302121431905 
Sr    1.9434040846232    1.9434040846232    9.7837076986597 
Sr    1.9434040846232    1.9434040846232   13.5921894311647 
Fe    0.0000000000000    0.0000000000000    0.0000000000000 
Fe    0.0000000000000    0.0000000000000    3.8868081972844 
Fe    0.0000000000000    0.0000000000000    7.8177785288500 
Fe    0.0000000000000    0.0000000000000   11.7615509001581 
 O    1.9434040846232    0.0000000000000   -0.0000000000000 
 O    1.9434040846232    0.0000000000000    3.8868081972844 
 O    1.9434040846232    0.0000000000000    7.8089189149567 
 O    1.9434040846232    0.0000000000000   11.7219244189849 
 O    0.0000000000000    1.9434040846232    0.0000000000000 
 O    0.0000000000000    1.9434040846232    3.8868081972844 
 O    0.0000000000000    1.9434040846232    7.8089189149567 
 O    0.0000000000000    1.9434040846232   11.7219244189849 
 O    0.0000000000000    0.0000000000000    1.9434039459060 
 O    0.0000000000000    0.0000000000000    5.8302121431905 
 O    0.0000000000000    0.0000000000000    9.7988554603996 
 O    0.0000000000000    0.0000000000000   13.6220942555385 
 O    1.9434040846232    1.9434040846232   16.1704305486488 
21
FORCE:  1.423240  ...  ENERGY:  -126.53908510
Sr    1.9434040846232    1.9434040846232    1.9434039459060 
Sr    1.9434040846232    1.9434040846232    5.8302121431905 
Sr    1.9434040846232    1.9434040846232    9.6870617529716 
Sr    1.9434040846232    1.9434040846232   13.6346167881021 
Fe    0.0000000000000    0.0000000000000    0.0000000000000 
Fe    0.0000000000000    0.0000000000000    3.8868081972844 
Fe    0.0000000000000    0.0000000000000    7.8497568993779 
Fe    0.0000000000000    0.0000000000000   11.7160947851008 
 O    1.9434040846232    0.0000000000000   -0.0000000000000 
 O    1.9434040846232    0.0000000000000    3.8868081972844 
 O    1.9434040846232    0.0000000000000    7.8147943696898 
 O    1.9434040846232    0.0000000000000   11.7534100626497 
 O    0.0000000000000    1.9434040846232    0.0000000000000 
 O    0.0000000000000    1.9434040846232    3.8868081972844 
 O    0.0000000000000    1.9434040846232    7.8147943696898 
 O    0.0000000000000    1.9434040846232   11.7534100626497 
 O    0.0000000000000    0.0000000000000    1.9434039459060 
 O    0.0000000000000    0.0000000000000    5.8302121431905 
 O    0.0000000000000    0.0000000000000    9.8177718342348 
 O    0.0000000000000    0.0000000000000   13.6808320018915 
 O    1.9434040846232    1.9434040846232   16.2672176225519 
21
FORCE:  1.085098  ...  ENERGY:  -126.58346602
Sr    1.9434040846232    1.9434040846232    1.9434039459060 
Sr    1.9434040846232    1.9434040846232    5.8302121431905 
Sr    1.9434040846232    1.9434040846232    9.7111989543436 
Sr    1.9434040846232    1.9434040846232   13.6240208695035 
Fe    0.0000000000000    0.0000000000000    0.0000000000000 
Fe    0.0000000000000    0.0000000000000    3.8868081972844 
Fe    0.0000000000000    0.0000000000000    7.8417703253945 
Fe    0.0000000000000    0.0000000000000   11.7274470531805 
 O    1.9434040846232    0.0000000000000   -0.0000000000000 
 O    1.9434040846232    0.0000000000000    3.8868081972844 
 O    1.9434040846232    0.0000000000000    7.8133271861043 
 O    1.9434040846232    0.0000000000000   11.7455465940140 
 O    0.0000000000000    1.9434040846232    0.0000000000000 
 O    0.0000000000000    1.9434040846232    3.8868081972844 
 O    0.0000000000000    1.9434040846232    7.8133271861043 
 O    0.0000000000000    1.9434040846232   11.7455465940140 
 O    0.0000000000000    0.0000000000000    1.9434039459060 
 O    0.0000000000000    0.0000000000000    5.8302121431905 
 O    0.0000000000000    0.0000000000000    9.8130477047013 
 O    0.0000000000000    0.0000000000000   13.6661626098153 
 O    1.9434040846232    1.9434040846232   16.2430452918622 
21
FORCE:  0.877398  ...  ENERGY:  -126.60460876
Sr    1.9434040846232    1.9434040846232    1.9434039459060 
Sr    1.9434040846232    1.9434040846232    5.8302121431905 
Sr    1.9434040846232    1.9434040846232    9.7257739554708 
Sr    1.9434040846232    1.9434040846232   13.6176224461469 
Fe    0.0000000000000    0.0000000000000    0.0000000000000 
Fe    0.0000000000000    0.0000000000000    3.8868081972844 
Fe    0.0000000000000    0.0000000000000    7.8369478337718 
Fe    0.0000000000000    0.0000000000000   11.7343024631379 
 O    1.9434040846232    0.0000000000000   -0.0000000000000 
 O    1.9434040846232    0.0000000000000    3.8868081972844 
 O    1.9434040846232    0.0000000000000    7.8124410108843 
 O    1.9434040846232    0.0000000000000   11.7407983321667 
 O    0.0000000000000    1.9434040846232    0.0000000000000 
 O    0.0000000000000    1.9434040846232    3.8868081972844 
 O    0.0000000000000    1.9434040846232    7.8124410108843 
 O    0.0000000000000    1.9434040846232   11.7407983321667 
 O    0.0000000000000    0.0000000000000    1.9434039459060 
 O    0.0000000000000    0.0000000000000    5.8302121431905 
 O    0.0000000000000    0.0000000000000    9.8101948986416 
 O    0.0000000000000    0.0000000000000   13.6573042178113 
 O    1.9434040846232    1.9434040846232   16.2284489076722 
21
FORCE:  0.430476  ...  ENERGY:  -126.63248874
Sr    1.9434040846232    1.9434040846232    1.9434039459060 
Sr    1.9434040846232    1.9434040846232    5.8302121431905 
Sr    1.9434040846232    1.9434040846232    9.7547406743291 
Sr    1.9434040846232    1.9434040846232   13.6049059386558 
Fe    0.0000000000000    0.0000000000000    0.0000000000000 
Fe    0.0000000000000    0.0000000000000    3.8868081972844 
Fe    0.0000000000000    0.0000000000000    7.8273630285747 
Fe    0.0000000000000    0.0000000000000   11.7479265289118 
 O    1.9434040846232    0.0000000000000   -0.0000000000000 
 O    1.9434040846232    0.0000000000000    3.8868081972844 
 O    1.9434040846232    0.0000000000000    7.8106799629205 
 O    1.9434040846232    0.0000000000000   11.7313613755758 
 O    0.0000000000000    1.9434040846232    0.0000000000000 
 O    0.0000000000000    1.9434040846232    3.8868081972844 
 O    0.0000000000000    1.9434040846232    7.8106799629205 
 O    0.0000000000000    1.9434040846232   11.7313613755758 
 O    0.0000000000000    0.0000000000000    1.9434039459060 
 O    0.0000000000000    0.0000000000000    5.8302121431905 
 O    0.0000000000000    0.0000000000000    9.8045250267844 
 O    0.0000000000000    0.0000000000000   13.6396992366749 
 O    1.9434040846232    1.9434040846232   16.1994397281605 
21
FORCE:  0.222487  ...  ENERGY:  -126.63876097
Sr    1.9434040846232    1.9434040846232    1.9434039459060 
Sr    1.9434040846232    1.9434040846232    5.8302121431905 
Sr    1.9434040846232    1.9434040846232    9.7692243392306 
Sr    1.9434040846232    1.9434040846232   13.5985478376465 
Fe    0.0000000000000    0.0000000000000    0.0000000000000 
Fe    0.0000000000000    0.0000000000000    3.8868081972844 
Fe    0.0000000000000    0.0000000000000    7.8225707787123 
Fe    0.0000000000000    0.0000000000000   11.7547388672711 
 O    1.9434040846232    0.0000000000000   -0.0000000000000 
 O    1.9434040846232    0.0000000000000    3.8868081972844 
 O    1.9434040846232    0.0000000000000    7.8097995916747 
 O    1.9434040846232    0.0000000000000   11.7266430500165 
 O    0.0000000000000    1.9434040846232    0.0000000000000 
 O    0.0000000000000    1.9434040846232    3.8868081972844 
 O    0.0000000000000    1.9434040846232    7.8097995916747 
 O    0.0000000000000    1.9434040846232   11.7266430500165 
 O    0.0000000000000    0.0000000000000    1.9434039459060 
 O    0.0000000000000    0.0000000000000    5.8302121431905 
 O    0.0000000000000    0.0000000000000    9.8016902435920 
 O    0.0000000000000    0.0000000000000   13.6308967461067 
 O    1.9434040846232    1.9434040846232   16.1849352911408 
21
FORCE:  0.150123  ...  ENERGY:  -126.64052003
Sr    1.9434040846232    1.9434040846232    1.9434039459060 
Sr    1.9434040846232    1.9434040846232    5.8302121431905 
Sr    1.9434040846232    1.9434040846232    9.7764658662090 
Sr    1.9434040846232    1.9434040846232   13.5953684816694 
Fe    0.0000000000000    0.0000000000000    0.0000000000000 
Fe    0.0000000000000    0.0000000000000    3.8868081972844 
Fe    0.0000000000000    0.0000000000000    7.8201746537812 
Fe    0.0000000000000    0.0000000000000   11.7581448837146 
 O    1.9434040846232    0.0000000000000   -0.0000000000000 
 O    1.9434040846232    0.0000000000000    3.8868081972844 
 O    1.9434040846232    0.0000000000000    7.8093594060519 
 O    1.9434040846232    0.0000000000000   11.7242838872368 
 O    0.0000000000000    1.9434040846232    0.0000000000000 
 O    0.0000000000000    1.9434040846232    3.8868081972844 
 O    0.0000000000000    1.9434040846232    7.8093594060519 
 O    0.0000000000000    1.9434040846232   11.7242838872368 
 O    0.0000000000000    0.0000000000000    1.9434039459060 
 O    0.0000000000000    0.0000000000000    5.8302121431905 
 O    0.0000000000000    0.0000000000000    9.8002728519958 
 O    0.0000000000000    0.0000000000000   13.6264955008226 
 O    1.9434040846232    1.9434040846232   16.1776830726310 
21
FORCE:  0.111545  ...  ENERGY:  -126.64123237
Sr    1.9434040846232    1.9434040846232    1.9434039459060 
Sr    1.9434040846232    1.9434040846232    5.8302121431905 
Sr    1.9434040846232    1.9434040846232    9.7800869351705 
Sr    1.9434040846232    1.9434040846232   13.5937791091533 
Fe    0.0000000000000    0.0000000000000    0.0000000000000 
Fe    0.0000000000000    0.0000000000000    3.8868081972844 
Fe    0.0000000000000    0.0000000000000    7.8189765913156 
Fe    0.0000000000000    0.0000000000000   11.7598478919364 
 O    1.9434040846232    0.0000000000000   -0.0000000000000 
 O    1.9434040846232    0.0000000000000    3.8868081972844 
 O    1.9434040846232    0.0000000000000    7.8091391605043 
 O    1.9434040846232    0.0000000000000   11.7231041531109 
 O    0.0000000000000    1.9434040846232    0.0000000000000 
 O    0.0000000000000    1.9434040846232    3.8868081972844 
 O    0.0000000000000    1.9434040846232    7.8091391605043 
 O    0.0000000000000    1.9434040846232   11.7231041531109 
 O    0.0000000000000    0.0000000000000    1.9434039459060 
 O    0.0000000000000    0.0000000000000    5.8302121431905 
 O    0.0000000000000    0.0000000000000    9.7995641561977 
 O    0.0000000000000    0.0000000000000   13.6242948781806 
 O    1.9434040846232    1.9434040846232   16.1740568106399 
21
FORCE:  0.091386  ...  ENERGY:  -126.64159221
Sr    1.9434040846232    1.9434040846232    1.9434039459060 
Sr    1.9434040846232    1.9434040846232    5.8302121431905 
Sr    1.9434040846232    1.9434040846232    9.7818971641789 
Sr    1.9434040846232    1.9434040846232   13.5929842701590 
Fe    0.0000000000000    0.0000000000000    0.0000000000000 
Fe    0.0000000000000    0.0000000000000    3.8868081972844 
Fe    0.0000000000000    0.0000000000000    7.8183775600828 
Fe    0.0000000000000    0.0000000000000   11.7606992433111 
 O    1.9434040846232    0.0000000000000   -0.0000000000000 
 O    1.9434040846232    0.0000000000000    3.8868081972844 
 O    1.9434040846232    0.0000000000000    7.8090291904666 
 O    1.9434040846232    0.0000000000000   11.7225142860479 
 O    0.0000000000000    1.9434040846232    0.0000000000000 
 O    0.0000000000000    1.9434040846232    3.8868081972844 
 O    0.0000000000000    1.9434040846232    7.8090291904666 
 O    0.0000000000000    1.9434040846232   11.7225142860479 
 O    0.0000000000000    0.0000000000000    1.9434039459060 
 O    0.0000000000000    0.0000000000000    5.8302121431905 
 O    0.0000000000000    0.0000000000000    9.7992098082986 
 O    0.0000000000000    0.0000000000000   13.6231945668596 
 O    1.9434040846232    1.9434040846232   16.1722438323805 
21
FORCE:  0.221339  ...  ENERGY:  -126.64254543
Sr    1.9434040846232    1.9434040846232    1.9434039459060 
Sr    1.9434040846232    1.9434040846232    5.8302121431905 
Sr    1.9434040846232    1.9434040846232    9.7828025841555 
Sr    1.9434040846232    1.9434040846232   13.5925868506619 
Fe    0.0000000000000    0.0000000000000    0.0000000000000 
Fe    0.0000000000000    0.0000000000000    3.8868081972844 
Fe    0.0000000000000    0.0000000000000    7.8180778917302 
Fe    0.0000000000000    0.0000000000000   11.7611250717346 
 O    1.9434040846232    0.0000000000000   -0.0000000000000 
 O    1.9434040846232    0.0000000000000    3.8868081972844 
 O    1.9434040846232    0.0000000000000    7.8089742054478 
 O    1.9434040846232    0.0000000000000   11.7222195052525 
 O    0.0000000000000    1.9434040846232    0.0000000000000 
 O    0.0000000000000    1.9434040846232    3.8868081972844 
 O    0.0000000000000    1.9434040846232    7.8089742054478 
 O    0.0000000000000    1.9434040846232   11.7222195052525 
 O    0.0000000000000    0.0000000000000    1.9434039459060 
 O    0.0000000000000    0.0000000000000    5.8302121431905 
 O    0.0000000000000    0.0000000000000    9.7990326343491 
 O    0.0000000000000    0.0000000000000   13.6226444111990 
 O    1.9434040846232    1.9434040846232   16.1713371905147 
21
FORCE:  0.078262  ...  ENERGY:  -126.64282425
Sr    1.9434040846232    1.9434040846232    1.9434039459060 
Sr    1.9434040846232    1.9434040846232    5.8302121431905 
Sr    1.9434040846232    1.9434040846232    9.7832549886714 
Sr    1.9434040846232    1.9434040846232   13.5923882936495 
Fe    0.0000000000000    0.0000000000000    0.0000000000000 
Fe    0.0000000000000    0.0000000000000    3.8868081972844 
Fe    0.0000000000000    0.0000000000000    7.8179282102901 
Fe    0.0000000000000    0.0000000000000   11.7613379859464 
 O    1.9434040846232    0.0000000000000   -0.0000000000000 
 O    1.9434040846232    0.0000000000000    3.8868081972844 
 O    1.9434040846232    0.0000000000000    7.8089464074661 
 O    1.9434040846232    0.0000000000000   11.7220719621187 
 O    0.0000000000000    1.9434040846232    0.0000000000000 
 O    0.0000000000000    1.9434040846232    3.8868081972844 
 O    0.0000000000000    1.9434040846232    7.8089464074661 
 O    0.0000000000000    1.9434040846232   11.7220719621187 
 O    0.0000000000000    0.0000000000000    1.9434039459060 
 O    0.0000000000000    0.0000000000000    5.8302121431905 
 O    0.0000000000000    0.0000000000000    9.7989440473743 
 O    0.0000000000000    0.0000000000000   13.6223691806326 
 O    1.9434040846232    1.9434040846232   16.1708838695817 
21
FORCE:  0.077972  ...  ENERGY:  -126.64181365
Sr    1.9434040846232    1.9434040846232    1.9434039459060 
Sr    1.9434040846232    1.9434040846232    5.8302121431905 
Sr    1.9434040846232    1.9434040846232    9.7830405470980 
Sr    1.9434040846232    1.9434040846232   13.5924823791261 
Fe    0.0000000000000    0.0000000000000    0.0000000000000 
Fe    0.0000000000000    0.0000000000000    3.8868081972844 
Fe    0.0000000000000    0.0000000000000    7.8179990798699 
Fe    0.0000000000000    0.0000000000000   11.7612371800785 
 O    1.9434040846232    0.0000000000000   -0.0000000000000 
 O    1.9434040846232    0.0000000000000    3.8868081972844 
 O    1.9434040846232    0.0000000000000    7.8089595427761 
 O    1.9434040846232    0.0000000000000   11.7221419152815 
 O    0.0000000000000    1.9434040846232    0.0000000000000 
 O    0.0000000000000    1.9434040846232    3.8868081972844 
 O    0.0000000000000    1.9434040846232    7.8089595427761 
 O    0.0000000000000    1.9434040846232   11.7221419152815 
 O    0.0000000000000    0.0000000000000    1.9434039459060 
 O    0.0000000000000    0.0000000000000    5.8302121431905 
 O    0.0000000000000    0.0000000000000    9.7989858970831 
 O    0.0000000000000    0.0000000000000   13.6224996173162 
 O    1.9434040846232    1.9434040846232   16.1710986166275 
21
FORCE:  0.077736  ...  ENERGY:  -126.64190945
Sr    1.9434040846232    1.9434040846232    1.9434039459060 
Sr    1.9434040846232    1.9434040846232    5.8302121431905 
Sr    1.9434040846232    1.9434040846232    9.7830246625370 
Sr    1.9434040846232    1.9434040846232   13.5924894049896 
Fe    0.0000000000000    0.0000000000000    0.0000000000000 
Fe    0.0000000000000    0.0000000000000    3.8868081972844 
Fe    0.0000000000000    0.0000000000000    7.8180045783718 
Fe    0.0000000000000    0.0000000000000   11.7612295432703 
 O    1.9434040846232    0.0000000000000   -0.0000000000000 
 O    1.9434040846232    0.0000000000000    3.8868081972844 
 O    1.9434040846232    0.0000000000000    7.8089604591931 
 O    1.9434040846232    0.0000000000000   11.7221471083111 
 O    0.0000000000000    1.9434040846232    0.0000000000000 
 O    0.0000000000000    1.9434040846232    3.8868081972844 
 O    0.0000000000000    1.9434040846232    7.8089604591931 
 O    0.0000000000000    1.9434040846232   11.7221471083111 
 O    0.0000000000000    0.0000000000000    1.9434039459060 
 O    0.0000000000000    0.0000000000000    5.8302121431905 
 O    0.0000000000000    0.0000000000000    9.7989889518064 
 O    0.0000000000000    0.0000000000000   13.6225093924306 
 O    1.9434040846232    1.9434040846232   16.1711148066608 
21
FORCE:  0.078465  ...  ENERGY:  -126.64194633
Sr    1.9434040846232    1.9434040846232    1.9434039459060 
Sr    1.9434040846232    1.9434040846232    5.8302121431905 
Sr    1.9434040846232    1.9434040846232    9.7829137760824 
Sr    1.9434040846232    1.9434040846232   13.5925379750896 
Fe    0.0000000000000    0.0000000000000    0.0000000000000 
Fe    0.0000000000000    0.0000000000000    3.8868081972844 
Fe    0.0000000000000    0.0000000000000    7.8180412350510 
Fe    0.0000000000000    0.0000000000000   11.7611773075025 
 O    1.9434040846232    0.0000000000000   -0.0000000000000 
 O    1.9434040846232    0.0000000000000    3.8868081972844 
 O    1.9434040846232    0.0000000000000    7.8089671795843 
 O    1.9434040846232    0.0000000000000   11.7221831540456 
 O    0.0000000000000    1.9434040846232    0.0000000000000 
 O    0.0000000000000    1.9434040846232    3.8868081972844 
 O    0.0000000000000    1.9434040846232    7.8089671795843 
 O    0.0000000000000    1.9434040846232   11.7221831540456 
 O    0.0000000000000    0.0000000000000    1.9434039459060 
 O    0.0000000000000    0.0000000000000    5.8302121431905 
 O    0.0000000000000    0.0000000000000    9.7990106403416 
 O    0.0000000000000    0.0000000000000   13.6225769018148 
 O    1.9434040846232    1.9434040846232   16.1712259985877 
21
FORCE:  0.079926  ...  ENERGY:  -126.64212313
Sr    1.9434040846232    1.9434040846232    1.9434039459060 
Sr    1.9434040846232    1.9434040846232    5.8302121431905 
Sr    1.9434040846232    1.9434040846232    9.7828771194032 
Sr    1.9434040846232    1.9434040846232   13.5925541651229 
Fe    0.0000000000000    0.0000000000000    0.0000000000000 
Fe    0.0000000000000    0.0000000000000    3.8868081972844 
Fe    0.0000000000000    0.0000000000000    7.8180531484717 
Fe    0.0000000000000    0.0000000000000   11.7611602010522 
 O    1.9434040846232    0.0000000000000   -0.0000000000000 
 O    1.9434040846232    0.0000000000000    3.8868081972844 
 O    1.9434040846232    0.0000000000000    7.8089696233629 
 O    1.9434040846232    0.0000000000000   11.7221950674664 
 O    0.0000000000000    1.9434040846232    0.0000000000000 
 O    0.0000000000000    1.9434040846232    3.8868081972844 
 O    0.0000000000000    1.9434040846232    7.8089696233629 
 O    0.0000000000000    1.9434040846232   11.7221950674664 
 O    0.0000000000000    0.0000000000000    1.9434039459060 
 O    0.0000000000000    0.0000000000000    5.8302121431905 
 O    0.0000000000000    0.0000000000000    9.7990179716774 
 O    0.0000000000000    0.0000000000000   13.6225988958224 
 O    1.9434040846232    1.9434040846232   16.1712623497946 
21
FORCE:  0.080503  ...  ENERGY:  -126.64200134
Sr    1.9434040846232    1.9434040846232    1.9434039459060 
Sr    1.9434040846232    1.9434040846232    5.8302121431905 
Sr    1.9434040846232    1.9434040846232    9.7828398517793 
Sr    1.9434040846232    1.9434040846232   13.5925703551562 
Fe    0.0000000000000    0.0000000000000    0.0000000000000 
Fe    0.0000000000000    0.0000000000000    3.8868081972844 
Fe    0.0000000000000    0.0000000000000    7.8180656728371 
Fe    0.0000000000000    0.0000000000000   11.7611427891295 
 O    1.9434040846232    0.0000000000000   -0.0000000000000 
 O    1.9434040846232    0.0000000000000    3.8868081972844 
 O    1.9434040846232    0.0000000000000    7.8089717616692 
 O    1.9434040846232    0.0000000000000   11.7222072863595 
 O    0.0000000000000    1.9434040846232    0.0000000000000 
 O    0.0000000000000    1.9434040846232    3.8868081972844 
 O    0.0000000000000    1.9434040846232    7.8089717616692 
 O    0.0000000000000    1.9434040846232   11.7222072863595 
 O    0.0000000000000    0.0000000000000    1.9434039459060 
 O    0.0000000000000    0.0000000000000    5.8302121431905 
 O    0.0000000000000    0.0000000000000    9.7990253030132 
 O    0.0000000000000    0.0000000000000   13.6226215007745 
 O    1.9434040846232    1.9434040846232   16.1712999228908 
21
FORCE:  0.080277  ...  ENERGY:  -126.64229155
Sr    1.9434040846232    1.9434040846232    1.9434039459060 
Sr    1.9434040846232    1.9434040846232    5.8302121431905 
Sr    1.9434040846232    1.9434040846232    9.7828212179674 
Sr    1.9434040846232    1.9434040846232   13.5925786029090 
Fe    0.0000000000000    0.0000000000000    0.0000000000000 
Fe    0.0000000000000    0.0000000000000    3.8868081972844 
Fe    0.0000000000000    0.0000000000000    7.8180717822837 
Fe    0.0000000000000    0.0000000000000   11.7611339304321 
 O    1.9434040846232    0.0000000000000   -0.0000000000000 
 O    1.9434040846232    0.0000000000000    3.8868081972844 
 O    1.9434040846232    0.0000000000000    7.8089729835585 
 O    1.9434040846232    0.0000000000000   11.7222133958060 
 O    0.0000000000000    1.9434040846232    0.0000000000000 
 O    0.0000000000000    1.9434040846232    3.8868081972844 
 O    0.0000000000000    1.9434040846232    7.8089729835585 
 O    0.0000000000000    1.9434040846232   11.7222133958060 
 O    0.0000000000000    0.0000000000000    1.9434039459060 
 O    0.0000000000000    0.0000000000000    5.8302121431905 
 O    0.0000000000000    0.0000000000000    9.7990289686812 
 O    0.0000000000000    0.0000000000000   13.6226331087230 
 O    1.9434040846232    1.9434040846232   16.1713185567027 
21
FORCE:  0.080549  ...  ENERGY:  -126.64224337
Sr    1.9434040846232    1.9434040846232    1.9434039459060 
Sr    1.9434040846232    1.9434040846232    5.8302121431905 
Sr    1.9434040846232    1.9434040846232    9.7828117483253 
Sr    1.9434040846232    1.9434040846232   13.5925828795216 
Fe    0.0000000000000    0.0000000000000    0.0000000000000 
Fe    0.0000000000000    0.0000000000000    3.8868081972844 
Fe    0.0000000000000    0.0000000000000    7.8180748370069 
Fe    0.0000000000000    0.0000000000000   11.7611293483472 
 O    1.9434040846232    0.0000000000000   -0.0000000000000 
 O    1.9434040846232    0.0000000000000    3.8868081972844 
 O    1.9434040846232    0.0000000000000    7.8089735945032 
 O    1.9434040846232    0.0000000000000   11.7222164505293 
 O    0.0000000000000    1.9434040846232    0.0000000000000 
 O    0.0000000000000    1.9434040846232    3.8868081972844 
 O    0.0000000000000    1.9434040846232    7.8089735945032 
 O    0.0000000000000    1.9434040846232   11.7222164505293 
 O    0.0000000000000    0.0000000000000    1.9434039459060 
 O    0.0000000000000    0.0000000000000    5.8302121431905 
 O    0.0000000000000    0.0000000000000    9.7990308015151 
 O    0.0000000000000    0.0000000000000   13.6226386072248 
 O    1.9434040846232    1.9434040846232   16.1713280263449 
21
FORCE:  0.081047  ...  ENERGY:  -126.64199908
Sr    1.9434040846232    1.9434040846232    1.9434039459060 
Sr    1.9434040846232    1.9434040846232    5.8302121431905 
Sr    1.9434040846232    1.9434040846232    9.7828071662404 
Sr    1.9434040846232    1.9434040846232   13.5925847123556 
Fe    0.0000000000000    0.0000000000000    0.0000000000000 
Fe    0.0000000000000    0.0000000000000    3.8868081972844 
Fe    0.0000000000000    0.0000000000000    7.8180763643686 
Fe    0.0000000000000    0.0000000000000   11.7611272100409 
 O    1.9434040846232    0.0000000000000   -0.0000000000000 
 O    1.9434040846232    0.0000000000000    3.8868081972844 
 O    1.9434040846232    0.0000000000000    7.8089738999755 
 O    1.9434040846232    0.0000000000000   11.7222179778909 
 O    0.0000000000000    1.9434040846232    0.0000000000000 
 O    0.0000000000000    1.9434040846232    3.8868081972844 
 O    0.0000000000000    1.9434040846232    7.8089738999755 
 O    0.0000000000000    1.9434040846232   11.7222179778909 
 O    0.0000000000000    0.0000000000000    1.9434039459060 
 O    0.0000000000000    0.0000000000000    5.8302121431905 
 O    0.0000000000000    0.0000000000000    9.7990317179321 
 O    0.0000000000000    0.0000000000000   13.6226413564758 
 O    1.9434040846232    1.9434040846232   16.1713326084298 
