21
FORCE:  0.263135  ...  ENERGY:  -126.29111864
Sr    1.9434040846232    1.9434040846232    1.9434039459060 
Sr    1.9434040846232    1.9434040846232    5.8302121431905 
Sr    1.9434040846232    1.9434040846232    9.7705152652835 
Sr    1.9434040846232    1.9434040846232   13.5870165627832 
Fe    0.0000000000000    0.0000000000000    0.0000000000000 
Fe    0.0000000000000    0.0000000000000    3.8868081972844 
Fe    0.0000000000000    0.0000000000000    7.8124715581170 
Fe    0.0000000000000    0.0000000000000   11.7478483279962 
 O    1.9434040846232    0.0000000000000   -0.0000000000000 
 O    1.9434040846232    0.0000000000000    3.8868081972844 
 O    1.9434040846232    0.0000000000000    7.8059405597707 
 O    1.9434040846232    0.0000000000000   11.7138593386135 
 O    0.0000000000000    1.9434040846232    0.0000000000000 
 O    0.0000000000000    1.9434040846232    3.8868081972844 
 O    0.0000000000000    1.9434040846232    7.8059405597707 
 O    0.0000000000000    1.9434040846232   11.7138593386135 
 O    0.0000000000000    0.0000000000000    1.9434039459060 
 O    0.0000000000000    0.0000000000000    5.8302121431905 
 O    0.0000000000000    0.0000000000000    9.7954210350297 
 O    0.0000000000000    0.0000000000000   13.6037164294154 
 O    1.9434040846232    1.9434040846232   16.1559099215958 
21
FORCE:  0.114656  ...  ENERGY:  -126.37710758
Sr    1.9434040846232    1.9434040846232    1.9434039459060 
Sr    1.9434040846232    1.9434040846232    5.8302121431905 
Sr    1.9434040846232    1.9434040846232    9.7731609611056 
Sr    1.9434040846232    1.9434040846232   13.5973002886639 
Fe    0.0000000000000    0.0000000000000    0.0000000000000 
Fe    0.0000000000000    0.0000000000000    3.8868081972844 
Fe    0.0000000000000    0.0000000000000    7.8109353377857 
Fe    0.0000000000000    0.0000000000000   11.7466945590180 
 O    1.9434040846232    0.0000000000000   -0.0000000000000 
 O    1.9434040846232    0.0000000000000    3.8868081972844 
 O    1.9434040846232    0.0000000000000    7.8067204306209 
 O    1.9434040846232    0.0000000000000   11.7171016218898 
 O    0.0000000000000    1.9434040846232    0.0000000000000 
 O    0.0000000000000    1.9434040846232    3.8868081972844 
 O    0.0000000000000    1.9434040846232    7.8067204306209 
 O    0.0000000000000    1.9434040846232   11.7171016218898 
 O    0.0000000000000    0.0000000000000    1.9434039459060 
 O    0.0000000000000    0.0000000000000    5.8302121431905 
 O    0.0000000000000    0.0000000000000    9.7958599987633 
 O    0.0000000000000    0.0000000000000   13.5990546162366 
 O    1.9434040846232    1.9434040846232   16.1432157135845 
21
FORCE:  0.852124  ...  ENERGY:  -126.29514628
Sr    1.9434040846232    1.9434040846232    1.9434039459060 
Sr    1.9434040846232    1.9434040846232    5.8302121431905 
Sr    1.9434040846232    1.9434040846232    9.7731490476849 
Sr    1.9434040846232    1.9434040846232   13.5972535513979 
Fe    0.0000000000000    0.0000000000000    0.0000000000000 
Fe    0.0000000000000    0.0000000000000    3.8868081972844 
Fe    0.0000000000000    0.0000000000000    7.8109423636492 
Fe    0.0000000000000    0.0000000000000   11.7466997520475 
 O    1.9434040846232    0.0000000000000   -0.0000000000000 
 O    1.9434040846232    0.0000000000000    3.8868081972844 
 O    1.9434040846232    0.0000000000000    7.8067170704253 
 O    1.9434040846232    0.0000000000000   11.7170869592181 
 O    0.0000000000000    1.9434040846232    0.0000000000000 
 O    0.0000000000000    1.9434040846232    3.8868081972844 
 O    0.0000000000000    1.9434040846232    7.8067170704253 
 O    0.0000000000000    1.9434040846232   11.7170869592181 
 O    0.0000000000000    0.0000000000000    1.9434039459060 
 O    0.0000000000000    0.0000000000000    5.8302121431905 
 O    0.0000000000000    0.0000000000000    9.7958578604570 
 O    0.0000000000000    0.0000000000000   13.5990759992994 
 O    1.9434040846232    1.9434040846232   16.1432737533266 
21
FORCE:  0.166142  ...  ENERGY:  -126.63847137
Sr    1.9434040846232    1.9434040846232    1.9434039459060 
Sr    1.9434040846232    1.9434040846232    5.8302121431905 
Sr    1.9434040846232    1.9434040846232    9.7731597392163 
Sr    1.9434040846232    1.9434040846232   13.5972954011067 
Fe    0.0000000000000    0.0000000000000    0.0000000000000 
Fe    0.0000000000000    0.0000000000000    3.8868081972844 
Fe    0.0000000000000    0.0000000000000    7.8109359487303 
Fe    0.0000000000000    0.0000000000000   11.7466951699626 
 O    1.9434040846232    0.0000000000000   -0.0000000000000 
 O    1.9434040846232    0.0000000000000    3.8868081972844 
 O    1.9434040846232    0.0000000000000    7.8067201251486 
 O    1.9434040846232    0.0000000000000   11.7171000945282 
 O    0.0000000000000    1.9434040846232    0.0000000000000 
 O    0.0000000000000    1.9434040846232    3.8868081972844 
 O    0.0000000000000    1.9434040846232    7.8067201251486 
 O    0.0000000000000    1.9434040846232   11.7171000945282 
 O    0.0000000000000    0.0000000000000    1.9434039459060 
 O    0.0000000000000    0.0000000000000    5.8302121431905 
 O    0.0000000000000    0.0000000000000    9.7958596932909 
 O    0.0000000000000    0.0000000000000   13.5990567545429 
 O    1.9434040846232    1.9434040846232   16.1432218230311 
21
FORCE:  0.097663  ...  ENERGY:  -126.64179475
Sr    1.9434040846232    1.9434040846232    1.9434039459060 
Sr    1.9434040846232    1.9434040846232    5.8302121431905 
Sr    1.9434040846232    1.9434040846232    9.7731545461868 
Sr    1.9434040846232    1.9434040846232   13.5972743235162 
Fe    0.0000000000000    0.0000000000000    0.0000000000000 
Fe    0.0000000000000    0.0000000000000    3.8868081972844 
Fe    0.0000000000000    0.0000000000000    7.8109390034536 
Fe    0.0000000000000    0.0000000000000   11.7466976137413 
 O    1.9434040846232    0.0000000000000   -0.0000000000000 
 O    1.9434040846232    0.0000000000000    3.8868081972844 
 O    1.9434040846232    0.0000000000000    7.8067185977869 
 O    1.9434040846232    0.0000000000000   11.7170936796093 
 O    0.0000000000000    1.9434040846232    0.0000000000000 
 O    0.0000000000000    1.9434040846232    3.8868081972844 
 O    0.0000000000000    1.9434040846232    7.8067185977869 
 O    0.0000000000000    1.9434040846232   11.7170936796093 
 O    0.0000000000000    0.0000000000000    1.9434039459060 
 O    0.0000000000000    0.0000000000000    5.8302121431905 
 O    0.0000000000000    0.0000000000000    9.7958587768740 
 O    0.0000000000000    0.0000000000000   13.5990662241850 
 O    1.9434040846232    1.9434040846232   16.1432477881789 
21
FORCE:  0.102097  ...  ENERGY:  -126.64188607
Sr    1.9434040846232    1.9434040846232    1.9434039459060 
Sr    1.9434040846232    1.9434040846232    5.8302121431905 
Sr    1.9434040846232    1.9434040846232    9.7731517969358 
Sr    1.9434040846232    1.9434040846232   13.5972639374570 
Fe    0.0000000000000    0.0000000000000    0.0000000000000 
Fe    0.0000000000000    0.0000000000000    3.8868081972844 
Fe    0.0000000000000    0.0000000000000    7.8109405308152 
Fe    0.0000000000000    0.0000000000000   11.7466985301582 
 O    1.9434040846232    0.0000000000000   -0.0000000000000 
 O    1.9434040846232    0.0000000000000    3.8868081972844 
 O    1.9434040846232    0.0000000000000    7.8067176813700 
 O    1.9434040846232    0.0000000000000   11.7170903194137 
 O    0.0000000000000    1.9434040846232    0.0000000000000 
 O    0.0000000000000    1.9434040846232    3.8868081972844 
 O    0.0000000000000    1.9434040846232    7.8067176813700 
 O    0.0000000000000    1.9434040846232   11.7170903194137 
 O    0.0000000000000    0.0000000000000    1.9434039459060 
 O    0.0000000000000    0.0000000000000    5.8302121431905 
 O    0.0000000000000    0.0000000000000    9.7958584714016 
 O    0.0000000000000    0.0000000000000   13.5990711117422 
 O    1.9434040846232    1.9434040846232   16.1432606180166 
21
FORCE:  0.090890  ...  ENERGY:  -126.64186339
Sr    1.9434040846232    1.9434040846232    1.9434039459060 
Sr    1.9434040846232    1.9434040846232    5.8302121431905 
Sr    1.9434040846232    1.9434040846232    9.7731502695742 
Sr    1.9434040846232    1.9434040846232   13.5972587444275 
Fe    0.0000000000000    0.0000000000000    0.0000000000000 
Fe    0.0000000000000    0.0000000000000    3.8868081972844 
Fe    0.0000000000000    0.0000000000000    7.8109414472322 
Fe    0.0000000000000    0.0000000000000   11.7466991411029 
 O    1.9434040846232    0.0000000000000   -0.0000000000000 
 O    1.9434040846232    0.0000000000000    3.8868081972844 
 O    1.9434040846232    0.0000000000000    7.8067173758976 
 O    1.9434040846232    0.0000000000000   11.7170884865798 
 O    0.0000000000000    1.9434040846232    0.0000000000000 
 O    0.0000000000000    1.9434040846232    3.8868081972844 
 O    0.0000000000000    1.9434040846232    7.8067173758976 
 O    0.0000000000000    1.9434040846232   11.7170884865798 
 O    0.0000000000000    0.0000000000000    1.9434039459060 
 O    0.0000000000000    0.0000000000000    5.8302121431905 
 O    0.0000000000000    0.0000000000000    9.7958581659293 
 O    0.0000000000000    0.0000000000000   13.5990735555208 
 O    1.9434040846232    1.9434040846232   16.1432670329354 
21
FORCE:  0.094498  ...  ENERGY:  -126.64189203
Sr    1.9434040846232    1.9434040846232    1.9434039459060 
Sr    1.9434040846232    1.9434040846232    5.8302121431905 
Sr    1.9434040846232    1.9434040846232    9.7731496586296 
Sr    1.9434040846232    1.9434040846232   13.5972559951765 
Fe    0.0000000000000    0.0000000000000    0.0000000000000 
Fe    0.0000000000000    0.0000000000000    3.8868081972844 
Fe    0.0000000000000    0.0000000000000    7.8109417527045 
Fe    0.0000000000000    0.0000000000000   11.7466994465752 
 O    1.9434040846232    0.0000000000000   -0.0000000000000 
 O    1.9434040846232    0.0000000000000    3.8868081972844 
 O    1.9434040846232    0.0000000000000    7.8067170704253 
 O    1.9434040846232    0.0000000000000   11.7170878756351 
 O    0.0000000000000    1.9434040846232    0.0000000000000 
 O    0.0000000000000    1.9434040846232    3.8868081972844 
 O    0.0000000000000    1.9434040846232    7.8067170704253 
 O    0.0000000000000    1.9434040846232   11.7170878756351 
 O    0.0000000000000    0.0000000000000    1.9434039459060 
 O    0.0000000000000    0.0000000000000    5.8302121431905 
 O    0.0000000000000    0.0000000000000    9.7958581659293 
 O    0.0000000000000    0.0000000000000   13.5990747774101 
 O    1.9434040846232    1.9434040846232   16.1432703931310 
21
FORCE:  0.089118  ...  ENERGY:  -126.64188914
Sr    1.9434040846232    1.9434040846232    1.9434039459060 
Sr    1.9434040846232    1.9434040846232    5.8302121431905 
Sr    1.9434040846232    1.9434040846232    9.7731493531572 
Sr    1.9434040846232    1.9434040846232   13.5972547732872 
Fe    0.0000000000000    0.0000000000000    0.0000000000000 
Fe    0.0000000000000    0.0000000000000    3.8868081972844 
Fe    0.0000000000000    0.0000000000000    7.8109420581769 
Fe    0.0000000000000    0.0000000000000   11.7466997520475 
 O    1.9434040846232    0.0000000000000   -0.0000000000000 
 O    1.9434040846232    0.0000000000000    3.8868081972844 
 O    1.9434040846232    0.0000000000000    7.8067170704253 
 O    1.9434040846232    0.0000000000000   11.7170872646905 
 O    0.0000000000000    1.9434040846232    0.0000000000000 
 O    0.0000000000000    1.9434040846232    3.8868081972844 
 O    0.0000000000000    1.9434040846232    7.8067170704253 
 O    0.0000000000000    1.9434040846232   11.7170872646905 
 O    0.0000000000000    0.0000000000000    1.9434039459060 
 O    0.0000000000000    0.0000000000000    5.8302121431905 
 O    0.0000000000000    0.0000000000000    9.7958581659293 
 O    0.0000000000000    0.0000000000000   13.5990753883548 
 O    1.9434040846232    1.9434040846232   16.1432719204927 
21
FORCE:  0.153303  ...  ENERGY:  -126.64225033
Sr    1.9434040846232    1.9434040846232    1.9434039459060 
Sr    1.9434040846232    1.9434040846232    5.8302121431905 
Sr    1.9434040846232    1.9434040846232    9.7731490476849 
Sr    1.9434040846232    1.9434040846232   13.5972541623426 
Fe    0.0000000000000    0.0000000000000    0.0000000000000 
Fe    0.0000000000000    0.0000000000000    3.8868081972844 
Fe    0.0000000000000    0.0000000000000    7.8109420581769 
Fe    0.0000000000000    0.0000000000000   11.7466997520475 
 O    1.9434040846232    0.0000000000000   -0.0000000000000 
 O    1.9434040846232    0.0000000000000    3.8868081972844 
 O    1.9434040846232    0.0000000000000    7.8067170704253 
 O    1.9434040846232    0.0000000000000   11.7170872646905 
 O    0.0000000000000    1.9434040846232    0.0000000000000 
 O    0.0000000000000    1.9434040846232    3.8868081972844 
 O    0.0000000000000    1.9434040846232    7.8067170704253 
 O    0.0000000000000    1.9434040846232   11.7170872646905 
 O    0.0000000000000    0.0000000000000    1.9434039459060 
 O    0.0000000000000    0.0000000000000    5.8302121431905 
 O    0.0000000000000    0.0000000000000    9.7958581659293 
 O    0.0000000000000    0.0000000000000   13.5990756938271 
 O    1.9434040846232    1.9434040846232   16.1432728369097 
21
FORCE:  0.110837  ...  ENERGY:  -126.64197172
Sr    1.9434040846232    1.9434040846232    1.9434039459060 
Sr    1.9434040846232    1.9434040846232    5.8302121431905 
Sr    1.9434040846232    1.9434040846232    9.7731490476849 
Sr    1.9434040846232    1.9434040846232   13.5972538568703 
Fe    0.0000000000000    0.0000000000000    0.0000000000000 
Fe    0.0000000000000    0.0000000000000    3.8868081972844 
Fe    0.0000000000000    0.0000000000000    7.8109420581769 
Fe    0.0000000000000    0.0000000000000   11.7466997520475 
 O    1.9434040846232    0.0000000000000   -0.0000000000000 
 O    1.9434040846232    0.0000000000000    3.8868081972844 
 O    1.9434040846232    0.0000000000000    7.8067170704253 
 O    1.9434040846232    0.0000000000000   11.7170869592181 
 O    0.0000000000000    1.9434040846232    0.0000000000000 
 O    0.0000000000000    1.9434040846232    3.8868081972844 
 O    0.0000000000000    1.9434040846232    7.8067170704253 
 O    0.0000000000000    1.9434040846232   11.7170869592181 
 O    0.0000000000000    0.0000000000000    1.9434039459060 
 O    0.0000000000000    0.0000000000000    5.8302121431905 
 O    0.0000000000000    0.0000000000000    9.7958581659293 
 O    0.0000000000000    0.0000000000000   13.5990756938271 
 O    1.9434040846232    1.9434040846232   16.1432731423820 
21
FORCE:  0.109840  ...  ENERGY:  -126.64204780
Sr    1.9434040846232    1.9434040846232    1.9434039459060 
Sr    1.9434040846232    1.9434040846232    5.8302121431905 
Sr    1.9434040846232    1.9434040846232    9.7731490476849 
Sr    1.9434040846232    1.9434040846232   13.5972535513979 
Fe    0.0000000000000    0.0000000000000    0.0000000000000 
Fe    0.0000000000000    0.0000000000000    3.8868081972844 
Fe    0.0000000000000    0.0000000000000    7.8109423636492 
Fe    0.0000000000000    0.0000000000000   11.7466997520475 
 O    1.9434040846232    0.0000000000000   -0.0000000000000 
 O    1.9434040846232    0.0000000000000    3.8868081972844 
 O    1.9434040846232    0.0000000000000    7.8067170704253 
 O    1.9434040846232    0.0000000000000   11.7170869592181 
 O    0.0000000000000    1.9434040846232    0.0000000000000 
 O    0.0000000000000    1.9434040846232    3.8868081972844 
 O    0.0000000000000    1.9434040846232    7.8067170704253 
 O    0.0000000000000    1.9434040846232   11.7170869592181 
 O    0.0000000000000    0.0000000000000    1.9434039459060 
 O    0.0000000000000    0.0000000000000    5.8302121431905 
 O    0.0000000000000    0.0000000000000    9.7958581659293 
 O    0.0000000000000    0.0000000000000   13.5990756938271 
 O    1.9434040846232    1.9434040846232   16.1432734478543 
21
FORCE:  0.115797  ...  ENERGY:  -126.64203976
Sr    1.9434040846232    1.9434040846232    1.9434039459060 
Sr    1.9434040846232    1.9434040846232    5.8302121431905 
Sr    1.9434040846232    1.9434040846232    9.7731490476849 
Sr    1.9434040846232    1.9434040846232   13.5972535513979 
Fe    0.0000000000000    0.0000000000000    0.0000000000000 
Fe    0.0000000000000    0.0000000000000    3.8868081972844 
Fe    0.0000000000000    0.0000000000000    7.8109423636492 
Fe    0.0000000000000    0.0000000000000   11.7466997520475 
 O    1.9434040846232    0.0000000000000   -0.0000000000000 
 O    1.9434040846232    0.0000000000000    3.8868081972844 
 O    1.9434040846232    0.0000000000000    7.8067170704253 
 O    1.9434040846232    0.0000000000000   11.7170869592181 
 O    0.0000000000000    1.9434040846232    0.0000000000000 
 O    0.0000000000000    1.9434040846232    3.8868081972844 
 O    0.0000000000000    1.9434040846232    7.8067170704253 
 O    0.0000000000000    1.9434040846232   11.7170869592181 
 O    0.0000000000000    0.0000000000000    1.9434039459060 
 O    0.0000000000000    0.0000000000000    5.8302121431905 
 O    0.0000000000000    0.0000000000000    9.7958581659293 
 O    0.0000000000000    0.0000000000000   13.5990756938271 
 O    1.9434040846232    1.9434040846232   16.1432734478543 
21
FORCE:  0.091229  ...  ENERGY:  -126.64189354
Sr    1.9434040846232    1.9434040846232    1.9434039459060 
Sr    1.9434040846232    1.9434040846232    5.8302121431905 
Sr    1.9434040846232    1.9434040846232    9.7731490476849 
Sr    1.9434040846232    1.9434040846232   13.5972535513979 
Fe    0.0000000000000    0.0000000000000    0.0000000000000 
Fe    0.0000000000000    0.0000000000000    3.8868081972844 
Fe    0.0000000000000    0.0000000000000    7.8109423636492 
Fe    0.0000000000000    0.0000000000000   11.7466997520475 
 O    1.9434040846232    0.0000000000000   -0.0000000000000 
 O    1.9434040846232    0.0000000000000    3.8868081972844 
 O    1.9434040846232    0.0000000000000    7.8067170704253 
 O    1.9434040846232    0.0000000000000   11.7170869592181 
 O    0.0000000000000    1.9434040846232    0.0000000000000 
 O    0.0000000000000    1.9434040846232    3.8868081972844 
 O    0.0000000000000    1.9434040846232    7.8067170704253 
 O    0.0000000000000    1.9434040846232   11.7170869592181 
 O    0.0000000000000    0.0000000000000    1.9434039459060 
 O    0.0000000000000    0.0000000000000    5.8302121431905 
 O    0.0000000000000    0.0000000000000    9.7958581659293 
 O    0.0000000000000    0.0000000000000   13.5990759992994 
 O    1.9434040846232    1.9434040846232   16.1432734478543 
21
FORCE:  0.116930  ...  ENERGY:  -126.64202505
Sr    1.9434040846232    1.9434040846232    1.9434039459060 
Sr    1.9434040846232    1.9434040846232    5.8302121431905 
Sr    1.9434040846232    1.9434040846232    9.7731490476849 
Sr    1.9434040846232    1.9434040846232   13.5972535513979 
Fe    0.0000000000000    0.0000000000000    0.0000000000000 
Fe    0.0000000000000    0.0000000000000    3.8868081972844 
Fe    0.0000000000000    0.0000000000000    7.8109423636492 
Fe    0.0000000000000    0.0000000000000   11.7466997520475 
 O    1.9434040846232    0.0000000000000   -0.0000000000000 
 O    1.9434040846232    0.0000000000000    3.8868081972844 
 O    1.9434040846232    0.0000000000000    7.8067170704253 
 O    1.9434040846232    0.0000000000000   11.7170869592181 
 O    0.0000000000000    1.9434040846232    0.0000000000000 
 O    0.0000000000000    1.9434040846232    3.8868081972844 
 O    0.0000000000000    1.9434040846232    7.8067170704253 
 O    0.0000000000000    1.9434040846232   11.7170869592181 
 O    0.0000000000000    0.0000000000000    1.9434039459060 
 O    0.0000000000000    0.0000000000000    5.8302121431905 
 O    0.0000000000000    0.0000000000000    9.7958578604570 
 O    0.0000000000000    0.0000000000000   13.5990759992994 
 O    1.9434040846232    1.9434040846232   16.1432737533266 
21
FORCE:  0.079413  ...  ENERGY:  -126.64186421
Sr    1.9434040846232    1.9434040846232    1.9434039459060 
Sr    1.9434040846232    1.9434040846232    5.8302121431905 
Sr    1.9434040846232    1.9434040846232    9.7731490476849 
Sr    1.9434040846232    1.9434040846232   13.5972535513979 
Fe    0.0000000000000    0.0000000000000    0.0000000000000 
Fe    0.0000000000000    0.0000000000000    3.8868081972844 
Fe    0.0000000000000    0.0000000000000    7.8109423636492 
Fe    0.0000000000000    0.0000000000000   11.7466997520475 
 O    1.9434040846232    0.0000000000000   -0.0000000000000 
 O    1.9434040846232    0.0000000000000    3.8868081972844 
 O    1.9434040846232    0.0000000000000    7.8067170704253 
 O    1.9434040846232    0.0000000000000   11.7170869592181 
 O    0.0000000000000    1.9434040846232    0.0000000000000 
 O    0.0000000000000    1.9434040846232    3.8868081972844 
 O    0.0000000000000    1.9434040846232    7.8067170704253 
 O    0.0000000000000    1.9434040846232   11.7170869592181 
 O    0.0000000000000    0.0000000000000    1.9434039459060 
 O    0.0000000000000    0.0000000000000    5.8302121431905 
 O    0.0000000000000    0.0000000000000    9.7958578604570 
 O    0.0000000000000    0.0000000000000   13.5990759992994 
 O    1.9434040846232    1.9434040846232   16.1432737533266 
21
FORCE:  0.081488  ...  ENERGY:  -126.64188725
Sr    1.9434040846232    1.9434040846232    1.9434039459060 
Sr    1.9434040846232    1.9434040846232    5.8302121431905 
Sr    1.9434040846232    1.9434040846232    9.7731490476849 
Sr    1.9434040846232    1.9434040846232   13.5972535513979 
Fe    0.0000000000000    0.0000000000000    0.0000000000000 
Fe    0.0000000000000    0.0000000000000    3.8868081972844 
Fe    0.0000000000000    0.0000000000000    7.8109423636492 
Fe    0.0000000000000    0.0000000000000   11.7466997520475 
 O    1.9434040846232    0.0000000000000   -0.0000000000000 
 O    1.9434040846232    0.0000000000000    3.8868081972844 
 O    1.9434040846232    0.0000000000000    7.8067170704253 
 O    1.9434040846232    0.0000000000000   11.7170869592181 
 O    0.0000000000000    1.9434040846232    0.0000000000000 
 O    0.0000000000000    1.9434040846232    3.8868081972844 
 O    0.0000000000000    1.9434040846232    7.8067170704253 
 O    0.0000000000000    1.9434040846232   11.7170869592181 
 O    0.0000000000000    0.0000000000000    1.9434039459060 
 O    0.0000000000000    0.0000000000000    5.8302121431905 
 O    0.0000000000000    0.0000000000000    9.7958578604570 
 O    0.0000000000000    0.0000000000000   13.5990759992994 
 O    1.9434040846232    1.9434040846232   16.1432737533266 
21
FORCE:  0.107681  ...  ENERGY:  -126.64204774
Sr    1.9434040846232    1.9434040846232    1.9434039459060 
Sr    1.9434040846232    1.9434040846232    5.8302121431905 
Sr    1.9434040846232    1.9434040846232    9.7731490476849 
Sr    1.9434040846232    1.9434040846232   13.5972535513979 
Fe    0.0000000000000    0.0000000000000    0.0000000000000 
Fe    0.0000000000000    0.0000000000000    3.8868081972844 
Fe    0.0000000000000    0.0000000000000    7.8109423636492 
Fe    0.0000000000000    0.0000000000000   11.7466997520475 
 O    1.9434040846232    0.0000000000000   -0.0000000000000 
 O    1.9434040846232    0.0000000000000    3.8868081972844 
 O    1.9434040846232    0.0000000000000    7.8067170704253 
 O    1.9434040846232    0.0000000000000   11.7170869592181 
 O    0.0000000000000    1.9434040846232    0.0000000000000 
 O    0.0000000000000    1.9434040846232    3.8868081972844 
 O    0.0000000000000    1.9434040846232    7.8067170704253 
 O    0.0000000000000    1.9434040846232   11.7170869592181 
 O    0.0000000000000    0.0000000000000    1.9434039459060 
 O    0.0000000000000    0.0000000000000    5.8302121431905 
 O    0.0000000000000    0.0000000000000    9.7958578604570 
 O    0.0000000000000    0.0000000000000   13.5990759992994 
 O    1.9434040846232    1.9434040846232   16.1432737533266 
21
FORCE:  0.099649  ...  ENERGY:  -126.64195670
Sr    1.9434040846232    1.9434040846232    1.9434039459060 
Sr    1.9434040846232    1.9434040846232    5.8302121431905 
Sr    1.9434040846232    1.9434040846232    9.7731490476849 
Sr    1.9434040846232    1.9434040846232   13.5972535513979 
Fe    0.0000000000000    0.0000000000000    0.0000000000000 
Fe    0.0000000000000    0.0000000000000    3.8868081972844 
Fe    0.0000000000000    0.0000000000000    7.8109423636492 
Fe    0.0000000000000    0.0000000000000   11.7466997520475 
 O    1.9434040846232    0.0000000000000   -0.0000000000000 
 O    1.9434040846232    0.0000000000000    3.8868081972844 
 O    1.9434040846232    0.0000000000000    7.8067170704253 
 O    1.9434040846232    0.0000000000000   11.7170869592181 
 O    0.0000000000000    1.9434040846232    0.0000000000000 
 O    0.0000000000000    1.9434040846232    3.8868081972844 
 O    0.0000000000000    1.9434040846232    7.8067170704253 
 O    0.0000000000000    1.9434040846232   11.7170869592181 
 O    0.0000000000000    0.0000000000000    1.9434039459060 
 O    0.0000000000000    0.0000000000000    5.8302121431905 
 O    0.0000000000000    0.0000000000000    9.7958578604570 
 O    0.0000000000000    0.0000000000000   13.5990759992994 
 O    1.9434040846232    1.9434040846232   16.1432737533266 
