5
FORCE:  0.000000  ...  ENERGY:  -31.48604079
Sr    1.9434040846232    1.9434040846232    1.9434040846232 
Fe    0.0000000000000    0.0000000000000    0.0000000000000 
 O    1.9434040846232    0.0000000000000   -0.0000000000000 
 O    0.0000000000000    1.9434040846232    0.0000000000000 
 O    0.0000000000000    0.0000000000000    1.9434040846232 
5
FORCE:  0.000000  ...  ENERGY:  -31.48564338
Sr    3.8868081692464    0.0000000000000   -0.0000000000000 
Fe   15.1084897708409    0.0000000000000   -0.0000000000000 
 O    0.0000000000000   15.1084897708409    0.0000000000000 
 O    0.0000000000000    0.0000000000000   15.1084897708409 
 O    0.0000000000000    0.0000000000000    0.0000000000000 
5
FORCE:  0.000000  ...  ENERGY:  -31.48661077
Sr    0.0000000000000    0.0000000000000    7.7736163384927 
Fe    1.9434040846232    1.9434040846232    1.9434040846232 
 O    0.0000000000000    0.0000000000000    0.0000000000000 
 O    1.9434040846232    0.0000000000000   -0.0000000000000 
 O    0.0000000000000    1.9434040846232    0.0000000000000 
5
FORCE:  0.000000  ...  ENERGY:  -31.48636998
Sr    0.0000000000000    0.0000000000000    0.0000000000000 
Fe    3.8868081692464    0.0000000000000   -0.0000000000000 
 O   15.1047856426556    0.0000000000000   -0.0000000000000 
 O    0.0000000000000   15.1047856426556    0.0000000000000 
 O    0.0000000000000    0.0000000000000   15.1047856426556 
5
FORCE:  0.000000  ...  ENERGY:  -31.48605629
Sr    3.8868081692464    3.8868081692464   11.6604245077391 
Fe    0.0000000000000    0.0000000000000   11.6604245077391 
 O    1.9434040846232    1.9434040846232    1.9434040846232 
 O    0.0000000000000    0.0000000000000    0.0000000000000 
 O    1.9434040846232    0.0000000000000   -0.0000000000000 
5
FORCE:  0.000000  ...  ENERGY:  -31.48615160
Sr    0.0000000000000    0.0000000000000    1.9434040846232 
Fe    0.0000000000000    0.0000000000000    0.0000000000000 
 O    3.8868081692464    0.0000000000000   -0.0000000000000 
 O   15.1080116934361    0.0000000000000   -0.0000000000000 
 O    0.0000000000000   15.1080116934361    0.0000000000000 
5
FORCE:    ...  ENERGY:  
Sr    0.0000000000000    0.0000000000000    0.0000000000000 
Fe    3.8868081692464    3.8868081692464   11.6604245077391 
 O    0.0000000000000    0.0000000000000   15.5472326769854 
 O    1.9434040846232    1.9434040846232    1.9434040846232 
 O    0.0000000000000    0.0000000000000    0.0000000000000 
5
FORCE:    ...  ENERGY:  
Sr    0.0000000000000    1.9434040846232    0.0000000000000 
Fe    0.0000000000000    0.0000000000000    1.9434040846232 
 O    0.0000000000000    0.0000000000000    0.0000000000000 
 O    3.8868081692464    0.0000000000000   -0.0000000000000 
 O   15.1072770866921    0.0000000000000   -0.0000000000000 
5
FORCE:    ...  ENERGY:  
Sr    0.0000000000000    0.0000000000000   15.1072770866921 
Fe    0.0000000000000    0.0000000000000    0.0000000000000 
 O    3.8868081692464    3.8868081692464   11.6604245077391 
 O    0.0000000000000    0.0000000000000   19.4340408462318 
 O    1.9434040846232    1.9434040846232    1.9434040846232 
5
FORCE:    ...  ENERGY:  
Sr    1.9434040846232    0.0000000000000   -0.0000000000000 
Fe    0.0000000000000    1.9434040846232    0.0000000000000 
 O    0.0000000000000    0.0000000000000    1.9434040846232 
 O    0.0000000000000    0.0000000000000    0.0000000000000 
 O    3.8868081692464    0.0000000000000   -0.0000000000000 
5
FORCE:    ...  ENERGY:  
Sr    0.0000000000000   15.1072770866921    0.0000000000000 
Fe    0.0000000000000    0.0000000000000   15.1072770866921 
 O    0.0000000000000    0.0000000000000    0.0000000000000 
 O    3.8868081692464    3.8868081692464   11.6604245077391 
 O    0.0000000000000    0.0000000000000   23.3208490154781 
5
FORCE:    ...  ENERGY:  
Sr    0.0000000000000    0.0000000000000    0.0000000000000 
Fe    1.9434040846232    0.0000000000000   -0.0000000000000 
 O    0.0000000000000    1.9434040846232    0.0000000000000 
 O    0.0000000000000    0.0000000000000    1.9434040846232 
 O    0.0000000000000    0.0000000000000    0.0000000000000 
