20
FORCE:  0.027118  ...  ENERGY:  -124.13306272
Sr    1.9434040846232    1.9434040846232    1.9434039459060 
Sr    1.9434040846232    1.9434040846232    5.8302121431905 
Sr    1.9434040846232    1.9434040846232    9.7284917427621 
Sr    1.9434040846232    1.9434040846232   13.4627705814268 
Fe    0.0000000000000    0.0000000000000    0.0000000000000 
Fe    0.0000000000000    0.0000000000000    3.8868081972844 
Fe    0.0000000000000    0.0000000000000    7.8063984627885 
Fe    0.0000000000000    0.0000000000000   11.7584708226873 
 O    1.9434040846232    0.0000000000000   -0.0000000000000 
 O    1.9434040846232    0.0000000000000    3.8868081972844 
 O    1.9434040846232    0.0000000000000    7.7965546170583 
 O    1.9434040846232    0.0000000000000   11.7419130006871 
 O    0.0000000000000    1.9434040846232    0.0000000000000 
 O    0.0000000000000    1.9434040846232    3.8868081972844 
 O    0.0000000000000    1.9434040846232    7.7965546170583 
 O    0.0000000000000    1.9434040846232   11.7419130006871 
 O    0.0000000000000    0.0000000000000    1.9434039459060 
 O    0.0000000000000    0.0000000000000    5.8302121431905 
 O    0.0000000000000    0.0000000000000    9.7818663114739 
 O    0.0000000000000    0.0000000000000   13.7053647899267 
20
FORCE:  0.032193  ...  ENERGY:  -124.16089135
Sr    1.9434040846232    1.9434040846232    1.9434039459060 
Sr    1.9434040846232    1.9434040846232    5.8302121431905 
Sr    1.9434040846232    1.9434040846232    9.7295230173373 
Sr    1.9434040846232    1.9434040846232   13.4637071595807 
Fe    0.0000000000000    0.0000000000000    0.0000000000000 
Fe    0.0000000000000    0.0000000000000    3.8868081972844 
Fe    0.0000000000000    0.0000000000000    7.8062121246692 
Fe    0.0000000000000    0.0000000000000   11.7571624847117 
 O    1.9434040846232    0.0000000000000   -0.0000000000000 
 O    1.9434040846232    0.0000000000000    3.8868081972844 
 O    1.9434040846232    0.0000000000000    7.7966752786274 
 O    1.9434040846232    0.0000000000000   11.7428932613837 
 O    0.0000000000000    1.9434040846232    0.0000000000000 
 O    0.0000000000000    1.9434040846232    3.8868081972844 
 O    0.0000000000000    1.9434040846232    7.7966752786274 
 O    0.0000000000000    1.9434040846232   11.7428932613837 
 O    0.0000000000000    0.0000000000000    1.9434039459060 
 O    0.0000000000000    0.0000000000000    5.8302121431905 
 O    0.0000000000000    0.0000000000000    9.7806218172147 
 O    0.0000000000000    0.0000000000000   13.7062488268404 
20
FORCE:  0.031847  ...  ENERGY:  -124.16092394
Sr    1.9434040846232    1.9434040846232    1.9434039459060 
Sr    1.9434040846232    1.9434040846232    5.8302121431905 
Sr    1.9434040846232    1.9434040846232    9.7295227118649 
Sr    1.9434040846232    1.9434040846232   13.4637065486360 
Fe    0.0000000000000    0.0000000000000    0.0000000000000 
Fe    0.0000000000000    0.0000000000000    3.8868081972844 
Fe    0.0000000000000    0.0000000000000    7.8062124301415 
Fe    0.0000000000000    0.0000000000000   11.7571630956564 
 O    1.9434040846232    0.0000000000000   -0.0000000000000 
 O    1.9434040846232    0.0000000000000    3.8868081972844 
 O    1.9434040846232    0.0000000000000    7.7966752786274 
 O    1.9434040846232    0.0000000000000   11.7428929559113 
 O    0.0000000000000    1.9434040846232    0.0000000000000 
 O    0.0000000000000    1.9434040846232    3.8868081972844 
 O    0.0000000000000    1.9434040846232    7.7966752786274 
 O    0.0000000000000    1.9434040846232   11.7428929559113 
 O    0.0000000000000    0.0000000000000    1.9434039459060 
 O    0.0000000000000    0.0000000000000    5.8302121431905 
 O    0.0000000000000    0.0000000000000    9.7806224281593 
 O    0.0000000000000    0.0000000000000   13.7062485213680 
20
FORCE:  0.022684  ...  ENERGY:  -124.16094082
Sr    1.9434040846232    1.9434040846232    1.9434039459060 
Sr    1.9434040846232    1.9434040846232    5.8302121431905 
Sr    1.9434040846232    1.9434040846232    9.7291842485269 
Sr    1.9434040846232    1.9434040846232   13.4633995489476 
Fe    0.0000000000000    0.0000000000000    0.0000000000000 
Fe    0.0000000000000    0.0000000000000    3.8868081972844 
Fe    0.0000000000000    0.0000000000000    7.8062735246068 
Fe    0.0000000000000    0.0000000000000   11.7575919788032 
 O    1.9434040846232    0.0000000000000   -0.0000000000000 
 O    1.9434040846232    0.0000000000000    3.8868081972844 
 O    1.9434040846232    0.0000000000000    7.7966355672249 
 O    1.9434040846232    0.0000000000000   11.7425712935512 
 O    0.0000000000000    1.9434040846232    0.0000000000000 
 O    0.0000000000000    1.9434040846232    3.8868081972844 
 O    0.0000000000000    1.9434040846232    7.7966355672249 
 O    0.0000000000000    1.9434040846232   11.7425712935512 
 O    0.0000000000000    0.0000000000000    1.9434039459060 
 O    0.0000000000000    0.0000000000000    5.8302121431905 
 O    0.0000000000000    0.0000000000000    9.7810305391879 
 O    0.0000000000000    0.0000000000000   13.7059583226576 
20
FORCE:  0.015102  ...  ENERGY:  -124.16095073
Sr    1.9434040846232    1.9434040846232    1.9434039459060 
Sr    1.9434040846232    1.9434040846232    5.8302121431905 
Sr    1.9434040846232    1.9434040846232    9.7288381483806 
Sr    1.9434040846232    1.9434040846232   13.4630852179234 
Fe    0.0000000000000    0.0000000000000    0.0000000000000 
Fe    0.0000000000000    0.0000000000000    3.8868081972844 
Fe    0.0000000000000    0.0000000000000    7.8063358409615 
Fe    0.0000000000000    0.0000000000000   11.7580315534814 
 O    1.9434040846232    0.0000000000000   -0.0000000000000 
 O    1.9434040846232    0.0000000000000    3.8868081972844 
 O    1.9434040846232    0.0000000000000    7.7965952448778 
 O    1.9434040846232    0.0000000000000   11.7422419943830 
 O    0.0000000000000    1.9434040846232    0.0000000000000 
 O    0.0000000000000    1.9434040846232    3.8868081972844 
 O    0.0000000000000    1.9434040846232    7.7965952448778 
 O    0.0000000000000    1.9434040846232   11.7422419943830 
 O    0.0000000000000    0.0000000000000    1.9434039459060 
 O    0.0000000000000    0.0000000000000    5.8302121431905 
 O    0.0000000000000    0.0000000000000    9.7814484253309 
 O    0.0000000000000    0.0000000000000   13.7056614035560 
20
FORCE:  0.013193  ...  ENERGY:  -124.16096988
Sr    1.9434040846232    1.9434040846232    1.9434039459060 
Sr    1.9434040846232    1.9434040846232    5.8302121431905 
Sr    1.9434040846232    1.9434040846232    9.7287086281141 
Sr    1.9434040846232    1.9434040846232   13.4629676110776 
Fe    0.0000000000000    0.0000000000000    0.0000000000000 
Fe    0.0000000000000    0.0000000000000    3.8868081972844 
Fe    0.0000000000000    0.0000000000000    7.8063593623307 
Fe    0.0000000000000    0.0000000000000   11.7581955921209 
 O    1.9434040846232    0.0000000000000   -0.0000000000000 
 O    1.9434040846232    0.0000000000000    3.8868081972844 
 O    1.9434040846232    0.0000000000000    7.7965799712614 
 O    1.9434040846232    0.0000000000000   11.7421191945076 
 O    0.0000000000000    1.9434040846232    0.0000000000000 
 O    0.0000000000000    1.9434040846232    3.8868081972844 
 O    0.0000000000000    1.9434040846232    7.7965799712614 
 O    0.0000000000000    1.9434040846232   11.7421191945076 
 O    0.0000000000000    0.0000000000000    1.9434039459060 
 O    0.0000000000000    0.0000000000000    5.8302121431905 
 O    0.0000000000000    0.0000000000000    9.7816045216899 
 O    0.0000000000000    0.0000000000000   13.7055505171014 
20
FORCE:  0.004731  ...  ENERGY:  -124.16091070
Sr    1.9434040846232    1.9434040846232    1.9434039459060 
Sr    1.9434040846232    1.9434040846232    5.8302121431905 
Sr    1.9434040846232    1.9434040846232    9.7291873032501 
Sr    1.9434040846232    1.9434040846232   13.4636045208789 
Fe    0.0000000000000    0.0000000000000    0.0000000000000 
Fe    0.0000000000000    0.0000000000000    3.8868081972844 
Fe    0.0000000000000    0.0000000000000    7.8063392011571 
Fe    0.0000000000000    0.0000000000000   11.7584824306357 
 O    1.9434040846232    0.0000000000000   -0.0000000000000 
 O    1.9434040846232    0.0000000000000    3.8868081972844 
 O    1.9434040846232    0.0000000000000    7.7967809720525 
 O    1.9434040846232    0.0000000000000   11.7422016720359 
 O    0.0000000000000    1.9434040846232    0.0000000000000 
 O    0.0000000000000    1.9434040846232    3.8868081972844 
 O    0.0000000000000    1.9434040846232    7.7967809720525 
 O    0.0000000000000    1.9434040846232   11.7422016720359 
 O    0.0000000000000    0.0000000000000    1.9434039459060 
 O    0.0000000000000    0.0000000000000    5.8302121431905 
 O    0.0000000000000    0.0000000000000    9.7814157397919 
 O    0.0000000000000    0.0000000000000   13.7053043064060 
