21
FORCE:  0.533784  ...  ENERGY:  -128.55899497
Sr    1.9434040846232    1.9434040846232    1.9434039459060 
Sr    1.9434040846232    1.9434040846232    5.8302121431905 
Sr    1.9434040846232    1.9434040846232    9.6882772273598 
Sr    1.9434040846232    1.9434040846232   13.7442059017478 
Fe    0.0000000000000    0.0000000000000    0.0000000000000 
Fe    0.0000000000000    0.0000000000000    3.8868081972844 
Fe    0.0000000000000    0.0000000000000    7.7846839624400 
Fe    0.0000000000000    0.0000000000000   11.7354983872972 
 O    1.9434040846232    0.0000000000000   -0.0000000000000 
 O    1.9434040846232    0.0000000000000    3.8868081972844 
 O    1.9434040846232    0.0000000000000    7.8476292846219 
 O    1.9434040846232    0.0000000000000   12.1200993491766 
 O    0.0000000000000    1.9434040846232    0.0000000000000 
 O    0.0000000000000    1.9434040846232    3.8868081972844 
 O    0.0000000000000    1.9434040846232    7.8476292846219 
 O    0.0000000000000    1.9434040846232   12.1200993491766 
 O    0.0000000000000    0.0000000000000    1.9434039459060 
 O    0.0000000000000    0.0000000000000    5.8302121431905 
 O    0.0000000000000    0.0000000000000    9.8602587582759 
 O    0.0000000000000    0.0000000000000   14.3438749607618 
 O    0.0000000000000    0.0000000000000   15.7752629935142 
21
FORCE:  1.469698  ...  ENERGY:  -128.54411592
Sr    1.9434040846232    1.9434040846232    1.9434039459060 
Sr    1.9434040846232    1.9434040846232    5.8302121431905 
Sr    1.9434040846232    1.9434040846232    9.6858639959783 
Sr    1.9434040846232    1.9434040846232   13.7430524382419 
Fe    0.0000000000000    0.0000000000000    0.0000000000000 
Fe    0.0000000000000    0.0000000000000    3.8868081972844 
Fe    0.0000000000000    0.0000000000000    7.7857711384510 
Fe    0.0000000000000    0.0000000000000   11.7410106354338 
 O    1.9434040846232    0.0000000000000   -0.0000000000000 
 O    1.9434040846232    0.0000000000000    3.8868081972844 
 O    1.9434040846232    0.0000000000000    7.8489965787565 
 O    1.9434040846232    0.0000000000000   12.1180453532514 
 O    0.0000000000000    1.9434040846232    0.0000000000000 
 O    0.0000000000000    1.9434040846232    3.8868081972844 
 O    0.0000000000000    1.9434040846232    7.8489965787565 
 O    0.0000000000000    1.9434040846232   12.1180453532514 
 O    0.0000000000000    0.0000000000000    1.9434039459060 
 O    0.0000000000000    0.0000000000000    5.8302121431905 
 O    0.0000000000000    0.0000000000000    9.8553412647596 
 O    0.0000000000000    0.0000000000000   14.3696262779085 
 O    0.0000000000000    0.0000000000000   15.7543378336581 
21
FORCE:  0.226326  ...  ENERGY:  -128.56443450
Sr    1.9434040846232    1.9434040846232    1.9434039459060 
Sr    1.9434040846232    1.9434040846232    5.8302121431905 
Sr    1.9434040846232    1.9434040846232    9.6874102968964 
Sr    1.9434040846232    1.9434040846232   13.7437916812727 
Fe    0.0000000000000    0.0000000000000    0.0000000000000 
Fe    0.0000000000000    0.0000000000000    3.8868081972844 
Fe    0.0000000000000    0.0000000000000    7.7850743560737 
Fe    0.0000000000000    0.0000000000000   11.7374781534470 
 O    1.9434040846232    0.0000000000000   -0.0000000000000 
 O    1.9434040846232    0.0000000000000    3.8868081972844 
 O    1.9434040846232    0.0000000000000    7.8481204841234 
 O    1.9434040846232    0.0000000000000   12.1193616335074 
 O    0.0000000000000    1.9434040846232    0.0000000000000 
 O    0.0000000000000    1.9434040846232    3.8868081972844 
 O    0.0000000000000    1.9434040846232    7.8481204841234 
 O    0.0000000000000    1.9434040846232   12.1193616335074 
 O    0.0000000000000    0.0000000000000    1.9434039459060 
 O    0.0000000000000    0.0000000000000    5.8302121431905 
 O    0.0000000000000    0.0000000000000    9.8584925172825 
 O    0.0000000000000    0.0000000000000   14.3531237463994 
 O    0.0000000000000    0.0000000000000   15.7677477633310 
21
FORCE:  0.108942  ...  ENERGY:  -128.56529196
Sr    1.9434040846232    1.9434040846232    1.9434039459060 
Sr    1.9434040846232    1.9434040846232    5.8302121431905 
Sr    1.9434040846232    1.9434040846232    9.6876244329975 
Sr    1.9434040846232    1.9434040846232   13.7438940145022 
Fe    0.0000000000000    0.0000000000000    0.0000000000000 
Fe    0.0000000000000    0.0000000000000    3.8868081972844 
Fe    0.0000000000000    0.0000000000000    7.7849778268184 
Fe    0.0000000000000    0.0000000000000   11.7369890922519 
 O    1.9434040846232    0.0000000000000   -0.0000000000000 
 O    1.9434040846232    0.0000000000000    3.8868081972844 
 O    1.9434040846232    0.0000000000000    7.8479989061373 
 O    1.9434040846232    0.0000000000000   12.1195440004865 
 O    0.0000000000000    1.9434040846232    0.0000000000000 
 O    0.0000000000000    1.9434040846232    3.8868081972844 
 O    0.0000000000000    1.9434040846232    7.8479989061373 
 O    0.0000000000000    1.9434040846232   12.1195440004865 
 O    0.0000000000000    0.0000000000000    1.9434039459060 
 O    0.0000000000000    0.0000000000000    5.8302121431905 
 O    0.0000000000000    0.0000000000000    9.8589290372375 
 O    0.0000000000000    0.0000000000000   14.3508385079228 
 O    0.0000000000000    0.0000000000000   15.7696047296054 
21
FORCE:  0.084973  ...  ENERGY:  -128.56515097
Sr    1.9434040846232    1.9434040846232    1.9434039459060 
Sr    1.9434040846232    1.9434040846232    5.8302121431905 
Sr    1.9434040846232    1.9434040846232    9.6875636440045 
Sr    1.9434040846232    1.9434040846232   13.7438649946311 
Fe    0.0000000000000    0.0000000000000    0.0000000000000 
Fe    0.0000000000000    0.0000000000000    3.8868081972844 
Fe    0.0000000000000    0.0000000000000    7.7850053193278 
Fe    0.0000000000000    0.0000000000000   11.7371277766882 
 O    1.9434040846232    0.0000000000000   -0.0000000000000 
 O    1.9434040846232    0.0000000000000    3.8868081972844 
 O    1.9434040846232    0.0000000000000    7.8480334245102 
 O    1.9434040846232    0.0000000000000   12.1194920701909 
 O    0.0000000000000    1.9434040846232    0.0000000000000 
 O    0.0000000000000    1.9434040846232    3.8868081972844 
 O    0.0000000000000    1.9434040846232    7.8480334245102 
 O    0.0000000000000    1.9434040846232   12.1194920701909 
 O    0.0000000000000    0.0000000000000    1.9434039459060 
 O    0.0000000000000    0.0000000000000    5.8302121431905 
 O    0.0000000000000    0.0000000000000    9.8588050154728 
 O    0.0000000000000    0.0000000000000   14.3514873311449 
 O    0.0000000000000    0.0000000000000   15.7690774843694 
21
FORCE:  0.078771  ...  ENERGY:  -128.56578397
Sr    1.9434040846232    1.9434040846232    1.9434039459060 
Sr    1.9434040846232    1.9434040846232    5.8302121431905 
Sr    1.9434040846232    1.9434040846232    9.6875776957315 
Sr    1.9434040846232    1.9434040846232   13.7438714095500 
Fe    0.0000000000000    0.0000000000000    0.0000000000000 
Fe    0.0000000000000    0.0000000000000    3.8868081972844 
Fe    0.0000000000000    0.0000000000000    7.7849992098813 
Fe    0.0000000000000    0.0000000000000   11.7370963130385 
 O    1.9434040846232    0.0000000000000   -0.0000000000000 
 O    1.9434040846232    0.0000000000000    3.8868081972844 
 O    1.9434040846232    0.0000000000000    7.8480257877021 
 O    1.9434040846232    0.0000000000000   12.1195039836117 
 O    0.0000000000000    1.9434040846232    0.0000000000000 
 O    0.0000000000000    1.9434040846232    3.8868081972844 
 O    0.0000000000000    1.9434040846232    7.8480257877021 
 O    0.0000000000000    1.9434040846232   12.1195039836117 
 O    0.0000000000000    0.0000000000000    1.9434039459060 
 O    0.0000000000000    0.0000000000000    5.8302121431905 
 O    0.0000000000000    0.0000000000000    9.8588331189269 
 O    0.0000000000000    0.0000000000000   14.3513400934834 
 O    0.0000000000000    0.0000000000000   15.7691969240492 
21
FORCE:  0.079018  ...  ENERGY:  -128.56596919
Sr    1.9434040846232    1.9434040846232    1.9434039459060 
Sr    1.9434040846232    1.9434040846232    5.8302121431905 
Sr    1.9434040846232    1.9434040846232    9.6875688370340 
Sr    1.9434040846232    1.9434040846232   13.7438674384097 
Fe    0.0000000000000    0.0000000000000    0.0000000000000 
Fe    0.0000000000000    0.0000000000000    3.8868081972844 
Fe    0.0000000000000    0.0000000000000    7.7850028755492 
Fe    0.0000000000000    0.0000000000000   11.7371161687398 
 O    1.9434040846232    0.0000000000000   -0.0000000000000 
 O    1.9434040846232    0.0000000000000    3.8868081972844 
 O    1.9434040846232    0.0000000000000    7.8480306752593 
 O    1.9434040846232    0.0000000000000   12.1194966522758 
 O    0.0000000000000    1.9434040846232    0.0000000000000 
 O    0.0000000000000    1.9434040846232    3.8868081972844 
 O    0.0000000000000    1.9434040846232    7.8480306752593 
 O    0.0000000000000    1.9434040846232   12.1194966522758 
 O    0.0000000000000    0.0000000000000    1.9434039459060 
 O    0.0000000000000    0.0000000000000    5.8302121431905 
 O    0.0000000000000    0.0000000000000    9.8588157070042 
 O    0.0000000000000    0.0000000000000   14.3514320406537 
 O    0.0000000000000    0.0000000000000   15.7691223888014 
21
FORCE:  0.079096  ...  ENERGY:  -128.56607237
Sr    1.9434040846232    1.9434040846232    1.9434039459060 
Sr    1.9434040846232    1.9434040846232    5.8302121431905 
Sr    1.9434040846232    1.9434040846232    9.6875657823108 
Sr    1.9434040846232    1.9434040846232   13.7438659110481 
Fe    0.0000000000000    0.0000000000000    0.0000000000000 
Fe    0.0000000000000    0.0000000000000    3.8868081972844 
Fe    0.0000000000000    0.0000000000000    7.7850044029108 
Fe    0.0000000000000    0.0000000000000   11.7371231946033 
 O    1.9434040846232    0.0000000000000   -0.0000000000000 
 O    1.9434040846232    0.0000000000000    3.8868081972844 
 O    1.9434040846232    0.0000000000000    7.8480322026209 
 O    1.9434040846232    0.0000000000000   12.1194939030249 
 O    0.0000000000000    1.9434040846232    0.0000000000000 
 O    0.0000000000000    1.9434040846232    3.8868081972844 
 O    0.0000000000000    1.9434040846232    7.8480322026209 
 O    0.0000000000000    1.9434040846232   12.1194939030249 
 O    0.0000000000000    0.0000000000000    1.9434039459060 
 O    0.0000000000000    0.0000000000000    5.8302121431905 
 O    0.0000000000000    0.0000000000000    9.8588092920854 
 O    0.0000000000000    0.0000000000000   14.3514659480820 
 O    0.0000000000000    0.0000000000000   15.7690945908197 
21
FORCE:  0.079133  ...  ENERGY:  -128.56613365
Sr    1.9434040846232    1.9434040846232    1.9434039459060 
Sr    1.9434040846232    1.9434040846232    5.8302121431905 
Sr    1.9434040846232    1.9434040846232    9.6875645604215 
Sr    1.9434040846232    1.9434040846232   13.7438653001034 
Fe    0.0000000000000    0.0000000000000    0.0000000000000 
Fe    0.0000000000000    0.0000000000000    3.8868081972844 
Fe    0.0000000000000    0.0000000000000    7.7850050138555 
Fe    0.0000000000000    0.0000000000000   11.7371259438542 
 O    1.9434040846232    0.0000000000000   -0.0000000000000 
 O    1.9434040846232    0.0000000000000    3.8868081972844 
 O    1.9434040846232    0.0000000000000    7.8480331190379 
 O    1.9434040846232    0.0000000000000   12.1194926811356 
 O    0.0000000000000    1.9434040846232    0.0000000000000 
 O    0.0000000000000    1.9434040846232    3.8868081972844 
 O    0.0000000000000    1.9434040846232    7.8480331190379 
 O    0.0000000000000    1.9434040846232   12.1194926811356 
 O    0.0000000000000    0.0000000000000    1.9434039459060 
 O    0.0000000000000    0.0000000000000    5.8302121431905 
 O    0.0000000000000    0.0000000000000    9.8588068483068 
 O    0.0000000000000    0.0000000000000   14.3514787779197 
 O    0.0000000000000    0.0000000000000   15.7690845102329 
21
FORCE:  0.079357  ...  ENERGY:  -128.56619603
Sr    1.9434040846232    1.9434040846232    1.9434039459060 
Sr    1.9434040846232    1.9434040846232    5.8302121431905 
Sr    1.9434040846232    1.9434040846232    9.6875639494768 
Sr    1.9434040846232    1.9434040846232   13.7438649946311 
Fe    0.0000000000000    0.0000000000000    0.0000000000000 
Fe    0.0000000000000    0.0000000000000    3.8868081972844 
Fe    0.0000000000000    0.0000000000000    7.7850053193278 
Fe    0.0000000000000    0.0000000000000   11.7371271657436 
 O    1.9434040846232    0.0000000000000   -0.0000000000000 
 O    1.9434040846232    0.0000000000000    3.8868081972844 
 O    1.9434040846232    0.0000000000000    7.8480334245102 
 O    1.9434040846232    0.0000000000000   12.1194923756633 
 O    0.0000000000000    1.9434040846232    0.0000000000000 
 O    0.0000000000000    1.9434040846232    3.8868081972844 
 O    0.0000000000000    1.9434040846232    7.8480334245102 
 O    0.0000000000000    1.9434040846232   12.1194923756633 
 O    0.0000000000000    0.0000000000000    1.9434039459060 
 O    0.0000000000000    0.0000000000000    5.8302121431905 
 O    0.0000000000000    0.0000000000000    9.8588059318898 
 O    0.0000000000000    0.0000000000000   14.3514836654770 
 O    0.0000000000000    0.0000000000000   15.7690802336203 
21
FORCE:  0.078767  ...  ENERGY:  -128.56618248
Sr    1.9434040846232    1.9434040846232    1.9434039459060 
Sr    1.9434040846232    1.9434040846232    5.8302121431905 
Sr    1.9434040846232    1.9434040846232    9.6875639494768 
Sr    1.9434040846232    1.9434040846232   13.7438649946311 
Fe    0.0000000000000    0.0000000000000    0.0000000000000 
Fe    0.0000000000000    0.0000000000000    3.8868081972844 
Fe    0.0000000000000    0.0000000000000    7.7850053193278 
Fe    0.0000000000000    0.0000000000000   11.7371274712159 
 O    1.9434040846232    0.0000000000000   -0.0000000000000 
 O    1.9434040846232    0.0000000000000    3.8868081972844 
 O    1.9434040846232    0.0000000000000    7.8480334245102 
 O    1.9434040846232    0.0000000000000   12.1194923756633 
 O    0.0000000000000    1.9434040846232    0.0000000000000 
 O    0.0000000000000    1.9434040846232    3.8868081972844 
 O    0.0000000000000    1.9434040846232    7.8480334245102 
 O    0.0000000000000    1.9434040846232   12.1194923756633 
 O    0.0000000000000    0.0000000000000    1.9434039459060 
 O    0.0000000000000    0.0000000000000    5.8302121431905 
 O    0.0000000000000    0.0000000000000    9.8588053209451 
 O    0.0000000000000    0.0000000000000   14.3514858037832 
 O    0.0000000000000    0.0000000000000   15.7690787062587 
21
FORCE:  0.137061  ...  ENERGY:  -128.56685296
Sr    1.9434040846232    1.9434040846232    1.9434039459060 
Sr    1.9434040846232    1.9434040846232    5.8302121431905 
Sr    1.9434040846232    1.9434040846232    9.6875639494768 
Sr    1.9434040846232    1.9434040846232   13.7438649946311 
Fe    0.0000000000000    0.0000000000000    0.0000000000000 
Fe    0.0000000000000    0.0000000000000    3.8868081972844 
Fe    0.0000000000000    0.0000000000000    7.7850053193278 
Fe    0.0000000000000    0.0000000000000   11.7371277766882 
 O    1.9434040846232    0.0000000000000   -0.0000000000000 
 O    1.9434040846232    0.0000000000000    3.8868081972844 
 O    1.9434040846232    0.0000000000000    7.8480334245102 
 O    1.9434040846232    0.0000000000000   12.1194920701909 
 O    0.0000000000000    1.9434040846232    0.0000000000000 
 O    0.0000000000000    1.9434040846232    3.8868081972844 
 O    0.0000000000000    1.9434040846232    7.8480334245102 
 O    0.0000000000000    1.9434040846232   12.1194920701909 
 O    0.0000000000000    0.0000000000000    1.9434039459060 
 O    0.0000000000000    0.0000000000000    5.8302121431905 
 O    0.0000000000000    0.0000000000000    9.8588053209451 
 O    0.0000000000000    0.0000000000000   14.3514867202002 
 O    0.0000000000000    0.0000000000000   15.7690777898417 
21
FORCE:  0.078757  ...  ENERGY:  -128.56623718
Sr    1.9434040846232    1.9434040846232    1.9434039459060 
Sr    1.9434040846232    1.9434040846232    5.8302121431905 
Sr    1.9434040846232    1.9434040846232    9.6875636440045 
Sr    1.9434040846232    1.9434040846232   13.7438649946311 
Fe    0.0000000000000    0.0000000000000    0.0000000000000 
Fe    0.0000000000000    0.0000000000000    3.8868081972844 
Fe    0.0000000000000    0.0000000000000    7.7850053193278 
Fe    0.0000000000000    0.0000000000000   11.7371277766882 
 O    1.9434040846232    0.0000000000000   -0.0000000000000 
 O    1.9434040846232    0.0000000000000    3.8868081972844 
 O    1.9434040846232    0.0000000000000    7.8480334245102 
 O    1.9434040846232    0.0000000000000   12.1194920701909 
 O    0.0000000000000    1.9434040846232    0.0000000000000 
 O    0.0000000000000    1.9434040846232    3.8868081972844 
 O    0.0000000000000    1.9434040846232    7.8480334245102 
 O    0.0000000000000    1.9434040846232   12.1194920701909 
 O    0.0000000000000    0.0000000000000    1.9434039459060 
 O    0.0000000000000    0.0000000000000    5.8302121431905 
 O    0.0000000000000    0.0000000000000    9.8588050154728 
 O    0.0000000000000    0.0000000000000   14.3514873311449 
 O    0.0000000000000    0.0000000000000   15.7690774843694 
21
FORCE:  0.078981  ...  ENERGY:  -128.56630140
Sr    1.9434040846232    1.9434040846232    1.9434039459060 
Sr    1.9434040846232    1.9434040846232    5.8302121431905 
Sr    1.9434040846232    1.9434040846232    9.6875636440045 
Sr    1.9434040846232    1.9434040846232   13.7438649946311 
Fe    0.0000000000000    0.0000000000000    0.0000000000000 
Fe    0.0000000000000    0.0000000000000    3.8868081972844 
Fe    0.0000000000000    0.0000000000000    7.7850053193278 
Fe    0.0000000000000    0.0000000000000   11.7371277766882 
 O    1.9434040846232    0.0000000000000   -0.0000000000000 
 O    1.9434040846232    0.0000000000000    3.8868081972844 
 O    1.9434040846232    0.0000000000000    7.8480334245102 
 O    1.9434040846232    0.0000000000000   12.1194920701909 
 O    0.0000000000000    1.9434040846232    0.0000000000000 
 O    0.0000000000000    1.9434040846232    3.8868081972844 
 O    0.0000000000000    1.9434040846232    7.8480334245102 
 O    0.0000000000000    1.9434040846232   12.1194920701909 
 O    0.0000000000000    0.0000000000000    1.9434039459060 
 O    0.0000000000000    0.0000000000000    5.8302121431905 
 O    0.0000000000000    0.0000000000000    9.8588050154728 
 O    0.0000000000000    0.0000000000000   14.3514873311449 
 O    0.0000000000000    0.0000000000000   15.7690774843694 
21
FORCE:  0.078746  ...  ENERGY:  -128.56629297
Sr    1.9434040846232    1.9434040846232    1.9434039459060 
Sr    1.9434040846232    1.9434040846232    5.8302121431905 
Sr    1.9434040846232    1.9434040846232    9.6875636440045 
Sr    1.9434040846232    1.9434040846232   13.7438649946311 
Fe    0.0000000000000    0.0000000000000    0.0000000000000 
Fe    0.0000000000000    0.0000000000000    3.8868081972844 
Fe    0.0000000000000    0.0000000000000    7.7850053193278 
Fe    0.0000000000000    0.0000000000000   11.7371277766882 
 O    1.9434040846232    0.0000000000000   -0.0000000000000 
 O    1.9434040846232    0.0000000000000    3.8868081972844 
 O    1.9434040846232    0.0000000000000    7.8480334245102 
 O    1.9434040846232    0.0000000000000   12.1194920701909 
 O    0.0000000000000    1.9434040846232    0.0000000000000 
 O    0.0000000000000    1.9434040846232    3.8868081972844 
 O    0.0000000000000    1.9434040846232    7.8480334245102 
 O    0.0000000000000    1.9434040846232   12.1194920701909 
 O    0.0000000000000    0.0000000000000    1.9434039459060 
 O    0.0000000000000    0.0000000000000    5.8302121431905 
 O    0.0000000000000    0.0000000000000    9.8588050154728 
 O    0.0000000000000    0.0000000000000   14.3514873311449 
 O    0.0000000000000    0.0000000000000   15.7690774843694 
21
FORCE:  0.079281  ...  ENERGY:  -128.56633689
Sr    1.9434040846232    1.9434040846232    1.9434039459060 
Sr    1.9434040846232    1.9434040846232    5.8302121431905 
Sr    1.9434040846232    1.9434040846232    9.6875636440045 
Sr    1.9434040846232    1.9434040846232   13.7438649946311 
Fe    0.0000000000000    0.0000000000000    0.0000000000000 
Fe    0.0000000000000    0.0000000000000    3.8868081972844 
Fe    0.0000000000000    0.0000000000000    7.7850053193278 
Fe    0.0000000000000    0.0000000000000   11.7371277766882 
 O    1.9434040846232    0.0000000000000   -0.0000000000000 
 O    1.9434040846232    0.0000000000000    3.8868081972844 
 O    1.9434040846232    0.0000000000000    7.8480334245102 
 O    1.9434040846232    0.0000000000000   12.1194920701909 
 O    0.0000000000000    1.9434040846232    0.0000000000000 
 O    0.0000000000000    1.9434040846232    3.8868081972844 
 O    0.0000000000000    1.9434040846232    7.8480334245102 
 O    0.0000000000000    1.9434040846232   12.1194920701909 
 O    0.0000000000000    0.0000000000000    1.9434039459060 
 O    0.0000000000000    0.0000000000000    5.8302121431905 
 O    0.0000000000000    0.0000000000000    9.8588050154728 
 O    0.0000000000000    0.0000000000000   14.3514873311449 
 O    0.0000000000000    0.0000000000000   15.7690774843694 
21
FORCE:  0.078722  ...  ENERGY:  -128.56633318
Sr    1.9434040846232    1.9434040846232    1.9434039459060 
Sr    1.9434040846232    1.9434040846232    5.8302121431905 
Sr    1.9434040846232    1.9434040846232    9.6875636440045 
Sr    1.9434040846232    1.9434040846232   13.7438649946311 
Fe    0.0000000000000    0.0000000000000    0.0000000000000 
Fe    0.0000000000000    0.0000000000000    3.8868081972844 
Fe    0.0000000000000    0.0000000000000    7.7850053193278 
Fe    0.0000000000000    0.0000000000000   11.7371277766882 
 O    1.9434040846232    0.0000000000000   -0.0000000000000 
 O    1.9434040846232    0.0000000000000    3.8868081972844 
 O    1.9434040846232    0.0000000000000    7.8480334245102 
 O    1.9434040846232    0.0000000000000   12.1194920701909 
 O    0.0000000000000    1.9434040846232    0.0000000000000 
 O    0.0000000000000    1.9434040846232    3.8868081972844 
 O    0.0000000000000    1.9434040846232    7.8480334245102 
 O    0.0000000000000    1.9434040846232   12.1194920701909 
 O    0.0000000000000    0.0000000000000    1.9434039459060 
 O    0.0000000000000    0.0000000000000    5.8302121431905 
 O    0.0000000000000    0.0000000000000    9.8588050154728 
 O    0.0000000000000    0.0000000000000   14.3514873311449 
 O    0.0000000000000    0.0000000000000   15.7690774843694 
21
FORCE:  0.079268  ...  ENERGY:  -128.56634469
Sr    1.9434040846232    1.9434040846232    1.9434039459060 
Sr    1.9434040846232    1.9434040846232    5.8302121431905 
Sr    1.9434040846232    1.9434040846232    9.6875636440045 
Sr    1.9434040846232    1.9434040846232   13.7438649946311 
Fe    0.0000000000000    0.0000000000000    0.0000000000000 
Fe    0.0000000000000    0.0000000000000    3.8868081972844 
Fe    0.0000000000000    0.0000000000000    7.7850053193278 
Fe    0.0000000000000    0.0000000000000   11.7371277766882 
 O    1.9434040846232    0.0000000000000   -0.0000000000000 
 O    1.9434040846232    0.0000000000000    3.8868081972844 
 O    1.9434040846232    0.0000000000000    7.8480334245102 
 O    1.9434040846232    0.0000000000000   12.1194920701909 
 O    0.0000000000000    1.9434040846232    0.0000000000000 
 O    0.0000000000000    1.9434040846232    3.8868081972844 
 O    0.0000000000000    1.9434040846232    7.8480334245102 
 O    0.0000000000000    1.9434040846232   12.1194920701909 
 O    0.0000000000000    0.0000000000000    1.9434039459060 
 O    0.0000000000000    0.0000000000000    5.8302121431905 
 O    0.0000000000000    0.0000000000000    9.8588050154728 
 O    0.0000000000000    0.0000000000000   14.3514873311449 
 O    0.0000000000000    0.0000000000000   15.7690774843694 
21
FORCE:  0.078746  ...  ENERGY:  -128.56634727
Sr    1.9434040846232    1.9434040846232    1.9434039459060 
Sr    1.9434040846232    1.9434040846232    5.8302121431905 
Sr    1.9434040846232    1.9434040846232    9.6875636440045 
Sr    1.9434040846232    1.9434040846232   13.7438649946311 
Fe    0.0000000000000    0.0000000000000    0.0000000000000 
Fe    0.0000000000000    0.0000000000000    3.8868081972844 
Fe    0.0000000000000    0.0000000000000    7.7850053193278 
Fe    0.0000000000000    0.0000000000000   11.7371277766882 
 O    1.9434040846232    0.0000000000000   -0.0000000000000 
 O    1.9434040846232    0.0000000000000    3.8868081972844 
 O    1.9434040846232    0.0000000000000    7.8480334245102 
 O    1.9434040846232    0.0000000000000   12.1194920701909 
 O    0.0000000000000    1.9434040846232    0.0000000000000 
 O    0.0000000000000    1.9434040846232    3.8868081972844 
 O    0.0000000000000    1.9434040846232    7.8480334245102 
 O    0.0000000000000    1.9434040846232   12.1194920701909 
 O    0.0000000000000    0.0000000000000    1.9434039459060 
 O    0.0000000000000    0.0000000000000    5.8302121431905 
 O    0.0000000000000    0.0000000000000    9.8588050154728 
 O    0.0000000000000    0.0000000000000   14.3514873311449 
 O    0.0000000000000    0.0000000000000   15.7690774843694 
