21
FORCE:  1.831805  ...  ENERGY:  -128.77372815
Sr    1.9434040846232    1.9434040846232    1.9434039459060 
Sr    1.9434040846232    1.9434040846232    5.8302121431905 
Sr    1.9434040846232    1.9434040846232    9.7727226083167 
Sr    1.9434040846232    1.9434040846232   13.5918677688047 
Fe    0.0000000000000    0.0000000000000    0.0000000000000 
Fe    0.0000000000000    0.0000000000000    3.8868081972844 
Fe    0.0000000000000    0.0000000000000    7.8139341596176 
Fe    0.0000000000000    0.0000000000000   11.7499163756484 
 O    1.9434040846232    0.0000000000000   -0.0000000000000 
 O    1.9434040846232    0.0000000000000    3.8868081972844 
 O    1.9434040846232    0.0000000000000    7.8071697804136 
 O    1.9434040846232    0.0000000000000   11.7155922831233 
 O    0.0000000000000    1.9434040846232    0.0000000000000 
 O    0.0000000000000    1.9434040846232    3.8868081972844 
 O    0.0000000000000    1.9434040846232    7.8071697804136 
 O    0.0000000000000    1.9434040846232   11.7155922831233 
 O    0.0000000000000    0.0000000000000    1.9434039459060 
 O    0.0000000000000    0.0000000000000    5.8302121431905 
 O    0.0000000000000    0.0000000000000    9.7972364570677 
 O    0.0000000000000    0.0000000000000   13.6053840028472 
 O    1.9434040846232    1.9434040846232   16.1613335827576 
21
FORCE:  0.721261  ...  ENERGY:  -126.59390701
Sr    1.9434040846232    1.9434040846232    1.9434039459060 
Sr    1.9434040846232    1.9434040846232    5.8302121431905 
Sr    1.9434040846232    1.9434040846232    9.7993579623771 
Sr    1.9434040846232    1.9434040846232   13.5034967629764 
Fe    0.0000000000000    0.0000000000000    0.0000000000000 
Fe    0.0000000000000    0.0000000000000    3.8868081972844 
Fe    0.0000000000000    0.0000000000000    7.8314160354063 
Fe    0.0000000000000    0.0000000000000   11.7401867765685 
 O    1.9434040846232    0.0000000000000   -0.0000000000000 
 O    1.9434040846232    0.0000000000000    3.8868081972844 
 O    1.9434040846232    0.0000000000000    7.8068022972045 
 O    1.9434040846232    0.0000000000000   11.7238372866951 
 O    0.0000000000000    1.9434040846232    0.0000000000000 
 O    0.0000000000000    1.9434040846232    3.8868081972844 
 O    0.0000000000000    1.9434040846232    7.8068022972045 
 O    0.0000000000000    1.9434040846232   11.7238372866951 
 O    0.0000000000000    0.0000000000000    1.9434039459060 
 O    0.0000000000000    0.0000000000000    5.8302121431905 
 O    0.0000000000000    0.0000000000000    9.7915681125721 
 O    0.0000000000000    0.0000000000000   13.6251679180905 
 O    1.9434040846232    1.9434040846232   16.2027907595852 
21
FORCE:  0.501203  ...  ENERGY:  -126.61911811
Sr    1.9434040846232    1.9434040846232    1.9434039459060 
Sr    1.9434040846232    1.9434040846232    5.8302121431905 
Sr    1.9434040846232    1.9434040846232    9.7913924659843 
Sr    1.9434040846232    1.9434040846232   13.5299253122716 
Fe    0.0000000000000    0.0000000000000    0.0000000000000 
Fe    0.0000000000000    0.0000000000000    3.8868081972844 
Fe    0.0000000000000    0.0000000000000    7.8261878765336 
Fe    0.0000000000000    0.0000000000000   11.7430967059533 
 O    1.9434040846232    0.0000000000000   -0.0000000000000 
 O    1.9434040846232    0.0000000000000    3.8868081972844 
 O    1.9434040846232    0.0000000000000    7.8069122672421 
 O    1.9434040846232    0.0000000000000   11.7213715140734 
 O    0.0000000000000    1.9434040846232    0.0000000000000 
 O    0.0000000000000    1.9434040846232    3.8868081972844 
 O    0.0000000000000    1.9434040846232    7.8069122672421 
 O    0.0000000000000    1.9434040846232   11.7213715140734 
 O    0.0000000000000    0.0000000000000    1.9434039459060 
 O    0.0000000000000    0.0000000000000    5.8302121431905 
 O    0.0000000000000    0.0000000000000    9.7932631785134 
 O    0.0000000000000    0.0000000000000   13.6192512245933 
 O    1.9434040846232    1.9434040846232   16.1903925542586 
21
FORCE:  0.374172  ...  ENERGY:  -126.62851100
Sr    1.9434040846232    1.9434040846232    1.9434039459060 
Sr    1.9434040846232    1.9434040846232    5.8302121431905 
Sr    1.9434040846232    1.9434040846232    9.7870969141252 
Sr    1.9434040846232    1.9434040846232   13.5441768182047 
Fe    0.0000000000000    0.0000000000000    0.0000000000000 
Fe    0.0000000000000    0.0000000000000    3.8868081972844 
Fe    0.0000000000000    0.0000000000000    7.8233686724299 
Fe    0.0000000000000    0.0000000000000   11.7446656118236 
 O    1.9434040846232    0.0000000000000   -0.0000000000000 
 O    1.9434040846232    0.0000000000000    3.8868081972844 
 O    1.9434040846232    0.0000000000000    7.8069715288735 
 O    1.9434040846232    0.0000000000000   11.7200417930350 
 O    0.0000000000000    1.9434040846232    0.0000000000000 
 O    0.0000000000000    1.9434040846232    3.8868081972844 
 O    0.0000000000000    1.9434040846232    7.8069715288735 
 O    0.0000000000000    1.9434040846232   11.7200417930350 
 O    0.0000000000000    0.0000000000000    1.9434039459060 
 O    0.0000000000000    0.0000000000000    5.8302121431905 
 O    0.0000000000000    0.0000000000000    9.7941774571874 
 O    0.0000000000000    0.0000000000000   13.6160608716125 
 O    1.9434040846232    1.9434040846232   16.1837066814425 
21
FORCE:  0.202599  ...  ENERGY:  -126.63883254
Sr    1.9434040846232    1.9434040846232    1.9434039459060 
Sr    1.9434040846232    1.9434040846232    5.8302121431905 
Sr    1.9434040846232    1.9434040846232    9.7799097612210 
Sr    1.9434040846232    1.9434040846232   13.5680222935047 
Fe    0.0000000000000    0.0000000000000    0.0000000000000 
Fe    0.0000000000000    0.0000000000000    3.8868081972844 
Fe    0.0000000000000    0.0000000000000    7.8186512632876 
Fe    0.0000000000000    0.0000000000000   11.7472911464722 
 O    1.9434040846232    0.0000000000000   -0.0000000000000 
 O    1.9434040846232    0.0000000000000    3.8868081972844 
 O    1.9434040846232    0.0000000000000    7.8070708073797 
 O    1.9434040846232    0.0000000000000   11.7178170380791 
 O    0.0000000000000    1.9434040846232    0.0000000000000 
 O    0.0000000000000    1.9434040846232    3.8868081972844 
 O    0.0000000000000    1.9434040846232    7.8070708073797 
 O    0.0000000000000    1.9434040846232   11.7178170380791 
 O    0.0000000000000    0.0000000000000    1.9434039459060 
 O    0.0000000000000    0.0000000000000    5.8302121431905 
 O    0.0000000000000    0.0000000000000    9.7957069571275 
 O    0.0000000000000    0.0000000000000   13.6107224372299 
 O    1.9434040846232    1.9434040846232   16.1725202848362 
21
FORCE:  0.056154  ...  ENERGY:  -126.64189816
Sr    1.9434040846232    1.9434040846232    1.9434039459060 
Sr    1.9434040846232    1.9434040846232    5.8302121431905 
Sr    1.9434040846232    1.9434040846232    9.7763161847689 
Sr    1.9434040846232    1.9434040846232   13.5799451838908 
Fe    0.0000000000000    0.0000000000000    0.0000000000000 
Fe    0.0000000000000    0.0000000000000    3.8868081972844 
Fe    0.0000000000000    0.0000000000000    7.8162927114526 
Fe    0.0000000000000    0.0000000000000   11.7486037610603 
 O    1.9434040846232    0.0000000000000   -0.0000000000000 
 O    1.9434040846232    0.0000000000000    3.8868081972844 
 O    1.9434040846232    0.0000000000000    7.8071202938966 
 O    1.9434040846232    0.0000000000000   11.7167045078650 
 O    0.0000000000000    1.9434040846232    0.0000000000000 
 O    0.0000000000000    1.9434040846232    3.8868081972844 
 O    0.0000000000000    1.9434040846232    7.8071202938966 
 O    0.0000000000000    1.9434040846232   11.7167045078650 
 O    0.0000000000000    0.0000000000000    1.9434039459060 
 O    0.0000000000000    0.0000000000000    5.8302121431905 
 O    0.0000000000000    0.0000000000000    9.7964718598338 
 O    0.0000000000000    0.0000000000000   13.6080532200386 
 O    1.9434040846232    1.9434040846232   16.1669270865331 
21
FORCE:  0.050222  ...  ENERGY:  -126.64199416
Sr    1.9434040846232    1.9434040846232    1.9434039459060 
Sr    1.9434040846232    1.9434040846232    5.8302121431905 
Sr    1.9434040846232    1.9434040846232    9.7749330060732 
Sr    1.9434040846232    1.9434040846232   13.5845346001282 
Fe    0.0000000000000    0.0000000000000    0.0000000000000 
Fe    0.0000000000000    0.0000000000000    3.8868081972844 
Fe    0.0000000000000    0.0000000000000    7.8153848476974 
Fe    0.0000000000000    0.0000000000000   11.7491090122888 
 O    1.9434040846232    0.0000000000000   -0.0000000000000 
 O    1.9434040846232    0.0000000000000    3.8868081972844 
 O    1.9434040846232    0.0000000000000    7.8071392331809 
 O    1.9434040846232    0.0000000000000   11.7162762356629 
 O    0.0000000000000    1.9434040846232    0.0000000000000 
 O    0.0000000000000    1.9434040846232    3.8868081972844 
 O    0.0000000000000    1.9434040846232    7.8071392331809 
 O    0.0000000000000    1.9434040846232   11.7162762356629 
 O    0.0000000000000    0.0000000000000    1.9434039459060 
 O    0.0000000000000    0.0000000000000    5.8302121431905 
 O    0.0000000000000    0.0000000000000    9.7967660296845 
 O    0.0000000000000    0.0000000000000   13.6070256111313 
 O    1.9434040846232    1.9434040846232   16.1647738121017 
21
FORCE:  0.016691  ...  ENERGY:  -126.64271986
Sr    1.9434040846232    1.9434040846232    1.9434039459060 
Sr    1.9434040846232    1.9434040846232    5.8302121431905 
Sr    1.9434040846232    1.9434040846232    9.7738278071950 
Sr    1.9434040846232    1.9434040846232   13.5882011844664 
Fe    0.0000000000000    0.0000000000000    0.0000000000000 
Fe    0.0000000000000    0.0000000000000    3.8868081972844 
Fe    0.0000000000000    0.0000000000000    7.8146596563936 
Fe    0.0000000000000    0.0000000000000   11.7495128467048 
 O    1.9434040846232    0.0000000000000   -0.0000000000000 
 O    1.9434040846232    0.0000000000000    3.8868081972844 
 O    1.9434040846232    0.0000000000000    7.8071545067972 
 O    1.9434040846232    0.0000000000000   11.7159341066569 
 O    0.0000000000000    1.9434040846232    0.0000000000000 
 O    0.0000000000000    1.9434040846232    3.8868081972844 
 O    0.0000000000000    1.9434040846232    7.8071545067972 
 O    0.0000000000000    1.9434040846232   11.7159341066569 
 O    0.0000000000000    0.0000000000000    1.9434039459060 
 O    0.0000000000000    0.0000000000000    5.8302121431905 
 O    0.0000000000000    0.0000000000000    9.7970012433761 
 O    0.0000000000000    0.0000000000000   13.6062048069893 
 O    1.9434040846232    1.9434040846232   16.1630536974296 
21
FORCE:  0.017857  ...  ENERGY:  -126.64285480
Sr    1.9434040846232    1.9434040846232    1.9434039459060 
Sr    1.9434040846232    1.9434040846232    5.8302121431905 
Sr    1.9434040846232    1.9434040846232    9.7732752077559 
Sr    1.9434040846232    1.9434040846232   13.5900346293717 
Fe    0.0000000000000    0.0000000000000    0.0000000000000 
Fe    0.0000000000000    0.0000000000000    3.8868081972844 
Fe    0.0000000000000    0.0000000000000    7.8142967552694 
Fe    0.0000000000000    0.0000000000000   11.7497147639128 
 O    1.9434040846232    0.0000000000000   -0.0000000000000 
 O    1.9434040846232    0.0000000000000    3.8868081972844 
 O    1.9434040846232    0.0000000000000    7.8071621436054 
 O    1.9434040846232    0.0000000000000   11.7157633476263 
 O    0.0000000000000    1.9434040846232    0.0000000000000 
 O    0.0000000000000    1.9434040846232    3.8868081972844 
 O    0.0000000000000    1.9434040846232    7.8071621436054 
 O    0.0000000000000    1.9434040846232   11.7157633476263 
 O    0.0000000000000    0.0000000000000    1.9434039459060 
 O    0.0000000000000    0.0000000000000    5.8302121431905 
 O    0.0000000000000    0.0000000000000    9.7971188502219 
 O    0.0000000000000    0.0000000000000   13.6057942521821 
 O    1.9434040846232    1.9434040846232   16.1621937928298 
21
FORCE:  0.010128  ...  ENERGY:  -126.64294864
Sr    1.9434040846232    1.9434040846232    1.9434039459060 
Sr    1.9434040846232    1.9434040846232    5.8302121431905 
Sr    1.9434040846232    1.9434040846232    9.7729990607725 
Sr    1.9434040846232    1.9434040846232   13.5909513518243 
Fe    0.0000000000000    0.0000000000000    0.0000000000000 
Fe    0.0000000000000    0.0000000000000    3.8868081972844 
Fe    0.0000000000000    0.0000000000000    7.8141156101797 
Fe    0.0000000000000    0.0000000000000   11.7498155697806 
 O    1.9434040846232    0.0000000000000   -0.0000000000000 
 O    1.9434040846232    0.0000000000000    3.8868081972844 
 O    1.9434040846232    0.0000000000000    7.8071661147457 
 O    1.9434040846232    0.0000000000000   11.7156778153748 
 O    0.0000000000000    1.9434040846232    0.0000000000000 
 O    0.0000000000000    1.9434040846232    3.8868081972844 
 O    0.0000000000000    1.9434040846232    7.8071661147457 
 O    0.0000000000000    1.9434040846232   11.7156778153748 
 O    0.0000000000000    0.0000000000000    1.9434039459060 
 O    0.0000000000000    0.0000000000000    5.8302121431905 
 O    0.0000000000000    0.0000000000000    9.7971778063809 
 O    0.0000000000000    0.0000000000000   13.6055889747785 
 O    1.9434040846232    1.9434040846232   16.1617636877937 
21
FORCE:  0.008291  ...  ENERGY:  -126.64303645
Sr    1.9434040846232    1.9434040846232    1.9434039459060 
Sr    1.9434040846232    1.9434040846232    5.8302121431905 
Sr    1.9434040846232    1.9434040846232    9.7730751233818 
Sr    1.9434040846232    1.9434040846232   13.5906987262101 
Fe    0.0000000000000    0.0000000000000    0.0000000000000 
Fe    0.0000000000000    0.0000000000000    3.8868081972844 
Fe    0.0000000000000    0.0000000000000    7.8141654021689 
Fe    0.0000000000000    0.0000000000000   11.7497877717989 
 O    1.9434040846232    0.0000000000000   -0.0000000000000 
 O    1.9434040846232    0.0000000000000    3.8868081972844 
 O    1.9434040846232    0.0000000000000    7.8071648928563 
 O    1.9434040846232    0.0000000000000   11.7157013367439 
 O    0.0000000000000    1.9434040846232    0.0000000000000 
 O    0.0000000000000    1.9434040846232    3.8868081972844 
 O    0.0000000000000    1.9434040846232    7.8071648928563 
 O    0.0000000000000    1.9434040846232   11.7157013367439 
 O    0.0000000000000    0.0000000000000    1.9434039459060 
 O    0.0000000000000    0.0000000000000    5.8302121431905 
 O    0.0000000000000    0.0000000000000    9.7971616163476 
 O    0.0000000000000    0.0000000000000   13.6056454871590 
 O    1.9434040846232    1.9434040846232   16.1618822110565 
