20
FORCE:  0.014062  ...  ENERGY:  -124.16065547
Sr    1.9434040846232    1.9434040846232    1.9434039459060 
Sr    1.9434040846232    1.9434040846232    5.8302121431905 
Sr    1.9434040846232    1.9434040846232    9.7285146531866 
Sr    1.9434040846232    1.9434040846232   13.4625879089754 
Fe    0.0000000000000    0.0000000000000    0.0000000000000 
Fe    0.0000000000000    0.0000000000000    3.8868081972844 
Fe    0.0000000000000    0.0000000000000    7.8063486707992 
Fe    0.0000000000000    0.0000000000000   11.7582227791580 
 O    1.9434040846232    0.0000000000000   -0.0000000000000 
 O    1.9434040846232    0.0000000000000    3.8868081972844 
 O    1.9434040846232    0.0000000000000    7.7962204303328 
 O    1.9434040846232    0.0000000000000   11.7419130006871 
 O    0.0000000000000    1.9434040846232    0.0000000000000 
 O    0.0000000000000    1.9434040846232    3.8868081972844 
 O    0.0000000000000    1.9434040846232    7.7962204303328 
 O    0.0000000000000    1.9434040846232   11.7419130006871 
 O    0.0000000000000    0.0000000000000    1.9434039459060 
 O    0.0000000000000    0.0000000000000    5.8302121431905 
 O    0.0000000000000    0.0000000000000    9.7817523702960 
 O    0.0000000000000    0.0000000000000   13.7054396306467 
20
FORCE:  0.010208  ...  ENERGY:  -124.16015563
Sr    1.9434040846232    1.9434040846232    1.9434039459060 
Sr    1.9434040846232    1.9434040846232    5.8302121431905 
Sr    1.9434040846232    1.9434040846232    9.7290220427214 
Sr    1.9434040846232    1.9434040846232   13.4632663630132 
Fe    0.0000000000000    0.0000000000000    0.0000000000000 
Fe    0.0000000000000    0.0000000000000    3.8868081972844 
Fe    0.0000000000000    0.0000000000000    7.8066144317235 
Fe    0.0000000000000    0.0000000000000   11.7588315855052 
 O    1.9434040846232    0.0000000000000   -0.0000000000000 
 O    1.9434040846232    0.0000000000000    3.8868081972844 
 O    1.9434040846232    0.0000000000000    7.7965921901545 
 O    1.9434040846232    0.0000000000000   11.7419261359971 
 O    0.0000000000000    1.9434040846232    0.0000000000000 
 O    0.0000000000000    1.9434040846232    3.8868081972844 
 O    0.0000000000000    1.9434040846232    7.7965921901545 
 O    0.0000000000000    1.9434040846232   11.7419261359971 
 O    0.0000000000000    0.0000000000000    1.9434039459060 
 O    0.0000000000000    0.0000000000000    5.8302121431905 
 O    0.0000000000000    0.0000000000000    9.7816182679446 
 O    0.0000000000000    0.0000000000000   13.7049059704919 
20
FORCE:  0.005937  ...  ENERGY:  -124.15991625
Sr    1.9434040846232    1.9434040846232    1.9434039459060 
Sr    1.9434040846232    1.9434040846232    5.8302121431905 
Sr    1.9434040846232    1.9434040846232    9.7288766378938 
Sr    1.9434040846232    1.9434040846232   13.4630720826133 
Fe    0.0000000000000    0.0000000000000    0.0000000000000 
Fe    0.0000000000000    0.0000000000000    3.8868081972844 
Fe    0.0000000000000    0.0000000000000    7.8065380636418 
Fe    0.0000000000000    0.0000000000000   11.7586571608066 
 O    1.9434040846232    0.0000000000000   -0.0000000000000 
 O    1.9434040846232    0.0000000000000    3.8868081972844 
 O    1.9434040846232    0.0000000000000    7.7964855803125 
 O    1.9434040846232    0.0000000000000   11.7419221648569 
 O    0.0000000000000    1.9434040846232    0.0000000000000 
 O    0.0000000000000    1.9434040846232    3.8868081972844 
 O    0.0000000000000    1.9434040846232    7.7964855803125 
 O    0.0000000000000    1.9434040846232   11.7419221648569 
 O    0.0000000000000    0.0000000000000    1.9434039459060 
 O    0.0000000000000    0.0000000000000    5.8302121431905 
 O    0.0000000000000    0.0000000000000    9.7816567574578 
 O    0.0000000000000    0.0000000000000   13.7050590121276 
