21
FORCE:  0.217070  ...  ENERGY:  -128.56060229
Sr    1.9434040846232    1.9434040846232    1.9434039459060 
Sr    1.9434040846232    1.9434040846232    5.8302121431905 
Sr    1.9434040846232    1.9434040846232    9.6624669540541 
Sr    1.9434040846232    1.9434040846232   13.7358634525037 
Fe    0.0000000000000    0.0000000000000    0.0000000000000 
Fe    0.0000000000000    0.0000000000000    3.8868081972844 
Fe    0.0000000000000    0.0000000000000    7.7823892543214 
Fe    0.0000000000000    0.0000000000000   11.7347716686318 
 O    1.9434040846232    0.0000000000000   -0.0000000000000 
 O    1.9434040846232    0.0000000000000    3.8868081972844 
 O    1.9434040846232    0.0000000000000    7.8516251681284 
 O    1.9434040846232    0.0000000000000   12.1285581833771 
 O    0.0000000000000    1.9434040846232    0.0000000000000 
 O    0.0000000000000    1.9434040846232    3.8868081972844 
 O    0.0000000000000    1.9434040846232    7.8516251681284 
 O    0.0000000000000    1.9434040846232   12.1285581833771 
 O    0.0000000000000    0.0000000000000    1.9434039459060 
 O    0.0000000000000    0.0000000000000    5.8302121431905 
 O    0.0000000000000    0.0000000000000    9.8596267360318 
 O    0.0000000000000    0.0000000000000   14.4102449331991 
 O    0.0000000000000    0.0000000000000   15.8235899374985 
21
FORCE:  0.652941  ...  ENERGY:  -128.56712187
Sr    1.9434040846232    1.9434040846232    1.9434039459060 
Sr    1.9434040846232    1.9434040846232    5.8302121431905 
Sr    1.9434040846232    1.9434040846232    9.6640462459835 
Sr    1.9434040846232    1.9434040846232   13.7385320587504 
Fe    0.0000000000000    0.0000000000000    0.0000000000000 
Fe    0.0000000000000    0.0000000000000    3.8868081972844 
Fe    0.0000000000000    0.0000000000000    7.7823083041548 
Fe    0.0000000000000    0.0000000000000   11.7351916930811 
 O    1.9434040846232    0.0000000000000   -0.0000000000000 
 O    1.9434040846232    0.0000000000000    3.8868081972844 
 O    1.9434040846232    0.0000000000000    7.8513862887689 
 O    1.9434040846232    0.0000000000000   12.1296267255762 
 O    0.0000000000000    1.9434040846232    0.0000000000000 
 O    0.0000000000000    1.9434040846232    3.8868081972844 
 O    0.0000000000000    1.9434040846232    7.8513862887689 
 O    0.0000000000000    1.9434040846232   12.1296267255762 
 O    0.0000000000000    0.0000000000000    1.9434039459060 
 O    0.0000000000000    0.0000000000000    5.8302121431905 
 O    0.0000000000000    0.0000000000000    9.8591343146411 
 O    0.0000000000000    0.0000000000000   14.3997727308927 
 O    0.0000000000000    0.0000000000000   15.8311436571948 
21
FORCE:  0.192333  ...  ENERGY:  -128.57244852
Sr    1.9434040846232    1.9434040846232    1.9434039459060 
Sr    1.9434040846232    1.9434040846232    5.8302121431905 
Sr    1.9434040846232    1.9434040846232    9.6628539874921 
Sr    1.9434040846232    1.9434040846232   13.7365174687553 
Fe    0.0000000000000    0.0000000000000    0.0000000000000 
Fe    0.0000000000000    0.0000000000000    3.8868081972844 
Fe    0.0000000000000    0.0000000000000    7.7823693986201 
Fe    0.0000000000000    0.0000000000000   11.7348746128060 
 O    1.9434040846232    0.0000000000000   -0.0000000000000 
 O    1.9434040846232    0.0000000000000    3.8868081972844 
 O    1.9434040846232    0.0000000000000    7.8515665174417 
 O    1.9434040846232    0.0000000000000   12.1288202786335 
 O    0.0000000000000    1.9434040846232    0.0000000000000 
 O    0.0000000000000    1.9434040846232    3.8868081972844 
 O    0.0000000000000    1.9434040846232    7.8515665174417 
 O    0.0000000000000    1.9434040846232   12.1288202786335 
 O    0.0000000000000    0.0000000000000    1.9434039459060 
 O    0.0000000000000    0.0000000000000    5.8302121431905 
 O    0.0000000000000    0.0000000000000    9.8595060744627 
 O    0.0000000000000    0.0000000000000   14.4076786601819 
 O    0.0000000000000    0.0000000000000   15.8254410997987 
21
FORCE:  0.027434  ...  ENERGY:  -128.57186482
Sr    1.9434040846232    1.9434040846232    1.9434039459060 
Sr    1.9434040846232    1.9434040846232    5.8302121431905 
Sr    1.9434040846232    1.9434040846232    9.6626783409042 
Sr    1.9434040846232    1.9434040846232   13.7362205496537 
Fe    0.0000000000000    0.0000000000000    0.0000000000000 
Fe    0.0000000000000    0.0000000000000    3.8868081972844 
Fe    0.0000000000000    0.0000000000000    7.7823782573176 
Fe    0.0000000000000    0.0000000000000   11.7348278755400 
 O    1.9434040846232    0.0000000000000   -0.0000000000000 
 O    1.9434040846232    0.0000000000000    3.8868081972844 
 O    1.9434040846232    0.0000000000000    7.8515930935341 
 O    1.9434040846232    0.0000000000000   12.1287014498984 
 O    0.0000000000000    1.9434040846232    0.0000000000000 
 O    0.0000000000000    1.9434040846232    3.8868081972844 
 O    0.0000000000000    1.9434040846232    7.8515930935341 
 O    0.0000000000000    1.9434040846232   12.1287014498984 
 O    0.0000000000000    0.0000000000000    1.9434039459060 
 O    0.0000000000000    0.0000000000000    5.8302121431905 
 O    0.0000000000000    0.0000000000000    9.8595607540092 
 O    0.0000000000000    0.0000000000000   14.4088431206915 
 O    0.0000000000000    0.0000000000000   15.8246010509001 
21
FORCE:  0.035243  ...  ENERGY:  -128.57203311
Sr    1.9434040846232    1.9434040846232    1.9434039459060 
Sr    1.9434040846232    1.9434040846232    5.8302121431905 
Sr    1.9434040846232    1.9434040846232    9.6626594016199 
Sr    1.9434040846232    1.9434040846232   13.7361890860040 
Fe    0.0000000000000    0.0000000000000    0.0000000000000 
Fe    0.0000000000000    0.0000000000000    3.8868081972844 
Fe    0.0000000000000    0.0000000000000    7.7823791737346 
Fe    0.0000000000000    0.0000000000000   11.7348229879827 
 O    1.9434040846232    0.0000000000000   -0.0000000000000 
 O    1.9434040846232    0.0000000000000    3.8868081972844 
 O    1.9434040846232    0.0000000000000    7.8515961482574 
 O    1.9434040846232    0.0000000000000   12.1286886200607 
 O    0.0000000000000    1.9434040846232    0.0000000000000 
 O    0.0000000000000    1.9434040846232    3.8868081972844 
 O    0.0000000000000    1.9434040846232    7.8515961482574 
 O    0.0000000000000    1.9434040846232   12.1286886200607 
 O    0.0000000000000    0.0000000000000    1.9434039459060 
 O    0.0000000000000    0.0000000000000    5.8302121431905 
 O    0.0000000000000    0.0000000000000    9.8595665579834 
 O    0.0000000000000    0.0000000000000   14.4089671424562 
 O    0.0000000000000    0.0000000000000   15.8245115475083 
21
FORCE:  0.015891  ...  ENERGY:  -128.57212335
Sr    1.9434040846232    1.9434040846232    1.9434039459060 
Sr    1.9434040846232    1.9434040846232    5.8302121431905 
Sr    1.9434040846232    1.9434040846232    9.6625631778370 
Sr    1.9434040846232    1.9434040846232   13.7360262692539 
Fe    0.0000000000000    0.0000000000000    0.0000000000000 
Fe    0.0000000000000    0.0000000000000    3.8868081972844 
Fe    0.0000000000000    0.0000000000000    7.7823843667641 
Fe    0.0000000000000    0.0000000000000   11.7347973283073 
 O    1.9434040846232    0.0000000000000   -0.0000000000000 
 O    1.9434040846232    0.0000000000000    3.8868081972844 
 O    1.9434040846232    0.0000000000000    7.8516105054567 
 O    1.9434040846232    0.0000000000000   12.1286235544551 
 O    0.0000000000000    1.9434040846232    0.0000000000000 
 O    0.0000000000000    1.9434040846232    3.8868081972844 
 O    0.0000000000000    1.9434040846232    7.8516105054567 
 O    0.0000000000000    1.9434040846232   12.1286235544551 
 O    0.0000000000000    0.0000000000000    1.9434039459060 
 O    0.0000000000000    0.0000000000000    5.8302121431905 
 O    0.0000000000000    0.0000000000000    9.8595967997438 
 O    0.0000000000000    0.0000000000000   14.4096058850915 
 O    0.0000000000000    0.0000000000000   15.8240508952396 
21
FORCE:  0.013844  ...  ENERGY:  -128.57222602
Sr    1.9434040846232    1.9434040846232    1.9434039459060 
Sr    1.9434040846232    1.9434040846232    5.8302121431905 
Sr    1.9434040846232    1.9434040846232    9.6625912812910 
Sr    1.9434040846232    1.9434040846232   13.7360736174645 
Fe    0.0000000000000    0.0000000000000    0.0000000000000 
Fe    0.0000000000000    0.0000000000000    3.8868081972844 
Fe    0.0000000000000    0.0000000000000    7.7823828394025 
Fe    0.0000000000000    0.0000000000000   11.7348049651154 
 O    1.9434040846232    0.0000000000000   -0.0000000000000 
 O    1.9434040846232    0.0000000000000    3.8868081972844 
 O    1.9434040846232    0.0000000000000    7.8516062288441 
 O    1.9434040846232    0.0000000000000   12.1286424937393 
 O    0.0000000000000    1.9434040846232    0.0000000000000 
 O    0.0000000000000    1.9434040846232    3.8868081972844 
 O    0.0000000000000    1.9434040846232    7.8516062288441 
 O    0.0000000000000    1.9434040846232   12.1286424937393 
 O    0.0000000000000    0.0000000000000    1.9434039459060 
 O    0.0000000000000    0.0000000000000    5.8302121431905 
 O    0.0000000000000    0.0000000000000    9.8595879410463 
 O    0.0000000000000    0.0000000000000   14.4094198524445 
 O    0.0000000000000    0.0000000000000   15.8241849975910 
21
FORCE:  0.022587  ...  ENERGY:  -128.57205713
Sr    1.9434040846232    1.9434040846232    1.9434039459060 
Sr    1.9434040846232    1.9434040846232    5.8302121431905 
Sr    1.9434040846232    1.9434040846232    9.6626157190772 
Sr    1.9434040846232    1.9434040846232   13.7361151617010 
Fe    0.0000000000000    0.0000000000000    0.0000000000000 
Fe    0.0000000000000    0.0000000000000    3.8868081972844 
Fe    0.0000000000000    0.0000000000000    7.7823816175132 
Fe    0.0000000000000    0.0000000000000   11.7348113800343 
 O    1.9434040846232    0.0000000000000   -0.0000000000000 
 O    1.9434040846232    0.0000000000000    3.8868081972844 
 O    1.9434040846232    0.0000000000000    7.8516025631762 
 O    1.9434040846232    0.0000000000000   12.1286589892450 
 O    0.0000000000000    1.9434040846232    0.0000000000000 
 O    0.0000000000000    1.9434040846232    3.8868081972844 
 O    0.0000000000000    1.9434040846232    7.8516025631762 
 O    0.0000000000000    1.9434040846232   12.1286589892450 
 O    0.0000000000000    0.0000000000000    1.9434039459060 
 O    0.0000000000000    0.0000000000000    5.8302121431905 
 O    0.0000000000000    0.0000000000000    9.8595803042381 
 O    0.0000000000000    0.0000000000000   14.4092573411666 
 O    0.0000000000000    0.0000000000000   15.8243022989645 
21
FORCE:  0.017184  ...  ENERGY:  -128.57218642
Sr    1.9434040846232    1.9434040846232    1.9434039459060 
Sr    1.9434040846232    1.9434040846232    5.8302121431905 
Sr    1.9434040846232    1.9434040846232    9.6625980016822 
Sr    1.9434040846232    1.9434040846232   13.7360849199406 
Fe    0.0000000000000    0.0000000000000    0.0000000000000 
Fe    0.0000000000000    0.0000000000000    3.8868081972844 
Fe    0.0000000000000    0.0000000000000    7.7823825339302 
Fe    0.0000000000000    0.0000000000000   11.7348064924771 
 O    1.9434040846232    0.0000000000000   -0.0000000000000 
 O    1.9434040846232    0.0000000000000    3.8868081972844 
 O    1.9434040846232    0.0000000000000    7.8516053124272 
 O    1.9434040846232    0.0000000000000   12.1286470758242 
 O    0.0000000000000    1.9434040846232    0.0000000000000 
 O    0.0000000000000    1.9434040846232    3.8868081972844 
 O    0.0000000000000    1.9434040846232    7.8516053124272 
 O    0.0000000000000    1.9434040846232   12.1286470758242 
 O    0.0000000000000    0.0000000000000    1.9434039459060 
 O    0.0000000000000    0.0000000000000    5.8302121431905 
 O    0.0000000000000    0.0000000000000    9.8595858027400 
 O    0.0000000000000    0.0000000000000   14.4093758644294 
 O    0.0000000000000    0.0000000000000   15.8242167667130 
21
FORCE:  0.023010  ...  ENERGY:  -128.57233274
Sr    1.9434040846232    1.9434040846232    1.9434039459060 
Sr    1.9434040846232    1.9434040846232    5.8302121431905 
Sr    1.9434040846232    1.9434040846232    9.6625940305420 
Sr    1.9434040846232    1.9434040846232   13.7360785050218 
Fe    0.0000000000000    0.0000000000000    0.0000000000000 
Fe    0.0000000000000    0.0000000000000    3.8868081972844 
Fe    0.0000000000000    0.0000000000000    7.7823825339302 
Fe    0.0000000000000    0.0000000000000   11.7348055760601 
 O    1.9434040846232    0.0000000000000   -0.0000000000000 
 O    1.9434040846232    0.0000000000000    3.8868081972844 
 O    1.9434040846232    0.0000000000000    7.8516059233718 
 O    1.9434040846232    0.0000000000000   12.1286443265733 
 O    0.0000000000000    1.9434040846232    0.0000000000000 
 O    0.0000000000000    1.9434040846232    3.8868081972844 
 O    0.0000000000000    1.9434040846232    7.8516059233718 
 O    0.0000000000000    1.9434040846232   12.1286443265733 
 O    0.0000000000000    0.0000000000000    1.9434039459060 
 O    0.0000000000000    0.0000000000000    5.8302121431905 
 O    0.0000000000000    0.0000000000000    9.8595870246293 
 O    0.0000000000000    0.0000000000000   14.4094012186325 
 O    0.0000000000000    0.0000000000000   15.8241984383734 
21
FORCE:  0.025527  ...  ENERGY:  -128.57238819
Sr    1.9434040846232    1.9434040846232    1.9434039459060 
Sr    1.9434040846232    1.9434040846232    5.8302121431905 
Sr    1.9434040846232    1.9434040846232    9.6625921977080 
Sr    1.9434040846232    1.9434040846232   13.7360751448262 
Fe    0.0000000000000    0.0000000000000    0.0000000000000 
Fe    0.0000000000000    0.0000000000000    3.8868081972844 
Fe    0.0000000000000    0.0000000000000    7.7823828394025 
Fe    0.0000000000000    0.0000000000000   11.7348049651154 
 O    1.9434040846232    0.0000000000000   -0.0000000000000 
 O    1.9434040846232    0.0000000000000    3.8868081972844 
 O    1.9434040846232    0.0000000000000    7.8516062288441 
 O    1.9434040846232    0.0000000000000   12.1286431046840 
 O    0.0000000000000    1.9434040846232    0.0000000000000 
 O    0.0000000000000    1.9434040846232    3.8868081972844 
 O    0.0000000000000    1.9434040846232    7.8516062288441 
 O    0.0000000000000    1.9434040846232   12.1286431046840 
 O    0.0000000000000    0.0000000000000    1.9434039459060 
 O    0.0000000000000    0.0000000000000    5.8302121431905 
 O    0.0000000000000    0.0000000000000    9.8595876355740 
 O    0.0000000000000    0.0000000000000   14.4094143539426 
 O    0.0000000000000    0.0000000000000   15.8241889687313 
21
FORCE:  0.024862  ...  ENERGY:  -128.57240132
Sr    1.9434040846232    1.9434040846232    1.9434039459060 
Sr    1.9434040846232    1.9434040846232    5.8302121431905 
Sr    1.9434040846232    1.9434040846232    9.6625915867634 
Sr    1.9434040846232    1.9434040846232   13.7360739229369 
Fe    0.0000000000000    0.0000000000000    0.0000000000000 
Fe    0.0000000000000    0.0000000000000    3.8868081972844 
Fe    0.0000000000000    0.0000000000000    7.7823828394025 
Fe    0.0000000000000    0.0000000000000   11.7348049651154 
 O    1.9434040846232    0.0000000000000   -0.0000000000000 
 O    1.9434040846232    0.0000000000000    3.8868081972844 
 O    1.9434040846232    0.0000000000000    7.8516062288441 
 O    1.9434040846232    0.0000000000000   12.1286424937393 
 O    0.0000000000000    1.9434040846232    0.0000000000000 
 O    0.0000000000000    1.9434040846232    3.8868081972844 
 O    0.0000000000000    1.9434040846232    7.8516062288441 
 O    0.0000000000000    1.9434040846232   12.1286424937393 
 O    0.0000000000000    0.0000000000000    1.9434039459060 
 O    0.0000000000000    0.0000000000000    5.8302121431905 
 O    0.0000000000000    0.0000000000000    9.8595879410463 
 O    0.0000000000000    0.0000000000000   14.4094186305552 
 O    0.0000000000000    0.0000000000000   15.8241862194803 
21
FORCE:  0.022270  ...  ENERGY:  -128.57239259
Sr    1.9434040846232    1.9434040846232    1.9434039459060 
Sr    1.9434040846232    1.9434040846232    5.8302121431905 
Sr    1.9434040846232    1.9434040846232    9.6625912812910 
Sr    1.9434040846232    1.9434040846232   13.7360736174645 
Fe    0.0000000000000    0.0000000000000    0.0000000000000 
Fe    0.0000000000000    0.0000000000000    3.8868081972844 
Fe    0.0000000000000    0.0000000000000    7.7823828394025 
Fe    0.0000000000000    0.0000000000000   11.7348049651154 
 O    1.9434040846232    0.0000000000000   -0.0000000000000 
 O    1.9434040846232    0.0000000000000    3.8868081972844 
 O    1.9434040846232    0.0000000000000    7.8516062288441 
 O    1.9434040846232    0.0000000000000   12.1286424937393 
 O    0.0000000000000    1.9434040846232    0.0000000000000 
 O    0.0000000000000    1.9434040846232    3.8868081972844 
 O    0.0000000000000    1.9434040846232    7.8516062288441 
 O    0.0000000000000    1.9434040846232   12.1286424937393 
 O    0.0000000000000    0.0000000000000    1.9434039459060 
 O    0.0000000000000    0.0000000000000    5.8302121431905 
 O    0.0000000000000    0.0000000000000    9.8595879410463 
 O    0.0000000000000    0.0000000000000   14.4094195469721 
 O    0.0000000000000    0.0000000000000   15.8241853030633 
21
FORCE:  0.021956  ...  ENERGY:  -128.57236931
Sr    1.9434040846232    1.9434040846232    1.9434039459060 
Sr    1.9434040846232    1.9434040846232    5.8302121431905 
Sr    1.9434040846232    1.9434040846232    9.6625912812910 
Sr    1.9434040846232    1.9434040846232   13.7360736174645 
Fe    0.0000000000000    0.0000000000000    0.0000000000000 
Fe    0.0000000000000    0.0000000000000    3.8868081972844 
Fe    0.0000000000000    0.0000000000000    7.7823828394025 
Fe    0.0000000000000    0.0000000000000   11.7348049651154 
 O    1.9434040846232    0.0000000000000   -0.0000000000000 
 O    1.9434040846232    0.0000000000000    3.8868081972844 
 O    1.9434040846232    0.0000000000000    7.8516062288441 
 O    1.9434040846232    0.0000000000000   12.1286424937393 
 O    0.0000000000000    1.9434040846232    0.0000000000000 
 O    0.0000000000000    1.9434040846232    3.8868081972844 
 O    0.0000000000000    1.9434040846232    7.8516062288441 
 O    0.0000000000000    1.9434040846232   12.1286424937393 
 O    0.0000000000000    0.0000000000000    1.9434039459060 
 O    0.0000000000000    0.0000000000000    5.8302121431905 
 O    0.0000000000000    0.0000000000000    9.8595879410463 
 O    0.0000000000000    0.0000000000000   14.4094198524445 
 O    0.0000000000000    0.0000000000000   15.8241849975910 
21
FORCE:  0.020228  ...  ENERGY:  -128.57238534
Sr    1.9434040846232    1.9434040846232    1.9434039459060 
Sr    1.9434040846232    1.9434040846232    5.8302121431905 
Sr    1.9434040846232    1.9434040846232    9.6625912812910 
Sr    1.9434040846232    1.9434040846232   13.7360736174645 
Fe    0.0000000000000    0.0000000000000    0.0000000000000 
Fe    0.0000000000000    0.0000000000000    3.8868081972844 
Fe    0.0000000000000    0.0000000000000    7.7823828394025 
Fe    0.0000000000000    0.0000000000000   11.7348049651154 
 O    1.9434040846232    0.0000000000000   -0.0000000000000 
 O    1.9434040846232    0.0000000000000    3.8868081972844 
 O    1.9434040846232    0.0000000000000    7.8516062288441 
 O    1.9434040846232    0.0000000000000   12.1286424937393 
 O    0.0000000000000    1.9434040846232    0.0000000000000 
 O    0.0000000000000    1.9434040846232    3.8868081972844 
 O    0.0000000000000    1.9434040846232    7.8516062288441 
 O    0.0000000000000    1.9434040846232   12.1286424937393 
 O    0.0000000000000    0.0000000000000    1.9434039459060 
 O    0.0000000000000    0.0000000000000    5.8302121431905 
 O    0.0000000000000    0.0000000000000    9.8595879410463 
 O    0.0000000000000    0.0000000000000   14.4094198524445 
 O    0.0000000000000    0.0000000000000   15.8241849975910 
21
FORCE:  0.078709  ...  ENERGY:  -128.57292482
Sr    1.9434040846232    1.9434040846232    1.9434039459060 
Sr    1.9434040846232    1.9434040846232    5.8302121431905 
Sr    1.9434040846232    1.9434040846232    9.6625912812910 
Sr    1.9434040846232    1.9434040846232   13.7360736174645 
Fe    0.0000000000000    0.0000000000000    0.0000000000000 
Fe    0.0000000000000    0.0000000000000    3.8868081972844 
Fe    0.0000000000000    0.0000000000000    7.7823828394025 
Fe    0.0000000000000    0.0000000000000   11.7348049651154 
 O    1.9434040846232    0.0000000000000   -0.0000000000000 
 O    1.9434040846232    0.0000000000000    3.8868081972844 
 O    1.9434040846232    0.0000000000000    7.8516062288441 
 O    1.9434040846232    0.0000000000000   12.1286424937393 
 O    0.0000000000000    1.9434040846232    0.0000000000000 
 O    0.0000000000000    1.9434040846232    3.8868081972844 
 O    0.0000000000000    1.9434040846232    7.8516062288441 
 O    0.0000000000000    1.9434040846232   12.1286424937393 
 O    0.0000000000000    0.0000000000000    1.9434039459060 
 O    0.0000000000000    0.0000000000000    5.8302121431905 
 O    0.0000000000000    0.0000000000000    9.8595879410463 
 O    0.0000000000000    0.0000000000000   14.4094198524445 
 O    0.0000000000000    0.0000000000000   15.8241849975910 
21
FORCE:  0.022490  ...  ENERGY:  -128.57241225
Sr    1.9434040846232    1.9434040846232    1.9434039459060 
Sr    1.9434040846232    1.9434040846232    5.8302121431905 
Sr    1.9434040846232    1.9434040846232    9.6625912812910 
Sr    1.9434040846232    1.9434040846232   13.7360736174645 
Fe    0.0000000000000    0.0000000000000    0.0000000000000 
Fe    0.0000000000000    0.0000000000000    3.8868081972844 
Fe    0.0000000000000    0.0000000000000    7.7823828394025 
Fe    0.0000000000000    0.0000000000000   11.7348049651154 
 O    1.9434040846232    0.0000000000000   -0.0000000000000 
 O    1.9434040846232    0.0000000000000    3.8868081972844 
 O    1.9434040846232    0.0000000000000    7.8516062288441 
 O    1.9434040846232    0.0000000000000   12.1286424937393 
 O    0.0000000000000    1.9434040846232    0.0000000000000 
 O    0.0000000000000    1.9434040846232    3.8868081972844 
 O    0.0000000000000    1.9434040846232    7.8516062288441 
 O    0.0000000000000    1.9434040846232   12.1286424937393 
 O    0.0000000000000    0.0000000000000    1.9434039459060 
 O    0.0000000000000    0.0000000000000    5.8302121431905 
 O    0.0000000000000    0.0000000000000    9.8595879410463 
 O    0.0000000000000    0.0000000000000   14.4094198524445 
 O    0.0000000000000    0.0000000000000   15.8241849975910 
21
FORCE:  0.023877  ...  ENERGY:  -128.57240933
Sr    1.9434040846232    1.9434040846232    1.9434039459060 
Sr    1.9434040846232    1.9434040846232    5.8302121431905 
Sr    1.9434040846232    1.9434040846232    9.6625912812910 
Sr    1.9434040846232    1.9434040846232   13.7360736174645 
Fe    0.0000000000000    0.0000000000000    0.0000000000000 
Fe    0.0000000000000    0.0000000000000    3.8868081972844 
Fe    0.0000000000000    0.0000000000000    7.7823828394025 
Fe    0.0000000000000    0.0000000000000   11.7348049651154 
 O    1.9434040846232    0.0000000000000   -0.0000000000000 
 O    1.9434040846232    0.0000000000000    3.8868081972844 
 O    1.9434040846232    0.0000000000000    7.8516062288441 
 O    1.9434040846232    0.0000000000000   12.1286424937393 
 O    0.0000000000000    1.9434040846232    0.0000000000000 
 O    0.0000000000000    1.9434040846232    3.8868081972844 
 O    0.0000000000000    1.9434040846232    7.8516062288441 
 O    0.0000000000000    1.9434040846232   12.1286424937393 
 O    0.0000000000000    0.0000000000000    1.9434039459060 
 O    0.0000000000000    0.0000000000000    5.8302121431905 
 O    0.0000000000000    0.0000000000000    9.8595879410463 
 O    0.0000000000000    0.0000000000000   14.4094198524445 
 O    0.0000000000000    0.0000000000000   15.8241849975910 
21
FORCE:  0.021942  ...  ENERGY:  -128.57239858
Sr    1.9434040846232    1.9434040846232    1.9434039459060 
Sr    1.9434040846232    1.9434040846232    5.8302121431905 
Sr    1.9434040846232    1.9434040846232    9.6625912812910 
Sr    1.9434040846232    1.9434040846232   13.7360736174645 
Fe    0.0000000000000    0.0000000000000    0.0000000000000 
Fe    0.0000000000000    0.0000000000000    3.8868081972844 
Fe    0.0000000000000    0.0000000000000    7.7823828394025 
Fe    0.0000000000000    0.0000000000000   11.7348049651154 
 O    1.9434040846232    0.0000000000000   -0.0000000000000 
 O    1.9434040846232    0.0000000000000    3.8868081972844 
 O    1.9434040846232    0.0000000000000    7.8516062288441 
 O    1.9434040846232    0.0000000000000   12.1286424937393 
 O    0.0000000000000    1.9434040846232    0.0000000000000 
 O    0.0000000000000    1.9434040846232    3.8868081972844 
 O    0.0000000000000    1.9434040846232    7.8516062288441 
 O    0.0000000000000    1.9434040846232   12.1286424937393 
 O    0.0000000000000    0.0000000000000    1.9434039459060 
 O    0.0000000000000    0.0000000000000    5.8302121431905 
 O    0.0000000000000    0.0000000000000    9.8595879410463 
 O    0.0000000000000    0.0000000000000   14.4094198524445 
 O    0.0000000000000    0.0000000000000   15.8241849975910 
