21
FORCE:  0.750643  ...  ENERGY:  -126.11037461
Sr    1.9434040846232    1.9434040846232    1.9434039459060 
Sr    1.9434040846232    1.9434040846232    5.8302121431905 
Sr    1.9434040846232    1.9434040846232    9.7730797054667 
Sr    1.9434040846232    1.9434040846232   13.5904021125808 
Fe    0.0000000000000    0.0000000000000    0.0000000000000 
Fe    0.0000000000000    0.0000000000000    3.8868081972844 
Fe    0.0000000000000    0.0000000000000    7.8141773155897 
Fe    0.0000000000000    0.0000000000000   11.7498815518032 
 O    1.9434040846232    0.0000000000000   -0.0000000000000 
 O    1.9434040846232    0.0000000000000    3.8868081972844 
 O    1.9434040846232    0.0000000000000    7.8071768062771 
 O    1.9434040846232    0.0000000000000   11.7156927835188 
 O    0.0000000000000    1.9434040846232    0.0000000000000 
 O    0.0000000000000    1.9434040846232    3.8868081972844 
 O    0.0000000000000    1.9434040846232    7.8071768062771 
 O    0.0000000000000    1.9434040846232   11.7156927835188 
 O    0.0000000000000    0.0000000000000    1.9434039459060 
 O    0.0000000000000    0.0000000000000    5.8302121431905 
 O    0.0000000000000    0.0000000000000    9.7971167119156 
 O    0.0000000000000    0.0000000000000   13.6055394882616 
 O    1.9434040846232    1.9434040846232   16.1623227021517 
21
FORCE:  0.237527  ...  ENERGY:  -126.63710585
Sr    1.9434040846232    1.9434040846232    1.9434039459060 
Sr    1.9434040846232    1.9434040846232    5.8302121431905 
Sr    1.9434040846232    1.9434040846232    9.7672650397267 
Sr    1.9434040846232    1.9434040846232   13.6266152459747 
Fe    0.0000000000000    0.0000000000000    0.0000000000000 
Fe    0.0000000000000    0.0000000000000    3.8868081972844 
Fe    0.0000000000000    0.0000000000000    7.8086760644569 
Fe    0.0000000000000    0.0000000000000   11.7428624086787 
 O    1.9434040846232    0.0000000000000   -0.0000000000000 
 O    1.9434040846232    0.0000000000000    3.8868081972844 
 O    1.9434040846232    0.0000000000000    7.8070802770218 
 O    1.9434040846232    0.0000000000000   11.7150919194520 
 O    0.0000000000000    1.9434040846232    0.0000000000000 
 O    0.0000000000000    1.9434040846232    3.8868081972844 
 O    0.0000000000000    1.9434040846232    7.8070802770218 
 O    0.0000000000000    1.9434040846232   11.7150919194520 
 O    0.0000000000000    0.0000000000000    1.9434039459060 
 O    0.0000000000000    0.0000000000000    5.8302121431905 
 O    0.0000000000000    0.0000000000000    9.7993851494142 
 O    0.0000000000000    0.0000000000000   13.6142164297035 
 O    1.9434040846232    1.9434040846232   16.1603973100760 
21
FORCE:  0.292906  ...  ENERGY:  -126.63749104
Sr    1.9434040846232    1.9434040846232    1.9434039459060 
Sr    1.9434040846232    1.9434040846232    5.8302121431905 
Sr    1.9434040846232    1.9434040846232    9.7672867282619 
Sr    1.9434040846232    1.9434040846232   13.6264796162616 
Fe    0.0000000000000    0.0000000000000    0.0000000000000 
Fe    0.0000000000000    0.0000000000000    3.8868081972844 
Fe    0.0000000000000    0.0000000000000    7.8086968365751 
Fe    0.0000000000000    0.0000000000000   11.7428886792988 
 O    1.9434040846232    0.0000000000000   -0.0000000000000 
 O    1.9434040846232    0.0000000000000    3.8868081972844 
 O    1.9434040846232    0.0000000000000    7.8070805824942 
 O    1.9434040846232    0.0000000000000   11.7150940577583 
 O    0.0000000000000    1.9434040846232    0.0000000000000 
 O    0.0000000000000    1.9434040846232    3.8868081972844 
 O    0.0000000000000    1.9434040846232    7.8070805824942 
 O    0.0000000000000    1.9434040846232   11.7150940577583 
 O    0.0000000000000    0.0000000000000    1.9434039459060 
 O    0.0000000000000    0.0000000000000    5.8302121431905 
 O    0.0000000000000    0.0000000000000    9.7993769016614 
 O    0.0000000000000    0.0000000000000   13.6141840496368 
 O    1.9434040846232    1.9434040846232   16.1604046414119 
21
FORCE:  0.275210  ...  ENERGY:  -126.64114297
Sr    1.9434040846232    1.9434040846232    1.9434039459060 
Sr    1.9434040846232    1.9434040846232    5.8302121431905 
Sr    1.9434040846232    1.9434040846232    9.7690932916024 
Sr    1.9434040846232    1.9434040846232   13.6152293759390 
Fe    0.0000000000000    0.0000000000000    0.0000000000000 
Fe    0.0000000000000    0.0000000000000    3.8868081972844 
Fe    0.0000000000000    0.0000000000000    7.8104056487711 
Fe    0.0000000000000    0.0000000000000   11.7450691407672 
 O    1.9434040846232    0.0000000000000   -0.0000000000000 
 O    1.9434040846232    0.0000000000000    3.8868081972844 
 O    1.9434040846232    0.0000000000000    7.8071105187822 
 O    1.9434040846232    0.0000000000000   11.7152810068223 
 O    0.0000000000000    1.9434040846232    0.0000000000000 
 O    0.0000000000000    1.9434040846232    3.8868081972844 
 O    0.0000000000000    1.9434040846232    7.8071105187822 
 O    0.0000000000000    1.9434040846232   11.7152810068223 
 O    0.0000000000000    0.0000000000000    1.9434039459060 
 O    0.0000000000000    0.0000000000000    5.8302121431905 
 O    0.0000000000000    0.0000000000000    9.7986718715312 
 O    0.0000000000000    0.0000000000000   13.6114882563531 
 O    1.9434040846232    1.9434040846232   16.1610027562277 
21
FORCE:  0.111909  ...  ENERGY:  -126.64198585
Sr    1.9434040846232    1.9434040846232    1.9434039459060 
Sr    1.9434040846232    1.9434040846232    5.8302121431905 
Sr    1.9434040846232    1.9434040846232    9.7710864985346 
Sr    1.9434040846232    1.9434040846232   13.6028155915238 
Fe    0.0000000000000    0.0000000000000    0.0000000000000 
Fe    0.0000000000000    0.0000000000000    3.8868081972844 
Fe    0.0000000000000    0.0000000000000    7.8122916349165 
Fe    0.0000000000000    0.0000000000000   11.7474753462852 
 O    1.9434040846232    0.0000000000000   -0.0000000000000 
 O    1.9434040846232    0.0000000000000    3.8868081972844 
 O    1.9434040846232    0.0000000000000    7.8071438152658 
 O    1.9434040846232    0.0000000000000   11.7154868951705 
 O    0.0000000000000    1.9434040846232    0.0000000000000 
 O    0.0000000000000    1.9434040846232    3.8868081972844 
 O    0.0000000000000    1.9434040846232    7.8071438152658 
 O    0.0000000000000    1.9434040846232   11.7154868951705 
 O    0.0000000000000    0.0000000000000    1.9434039459060 
 O    0.0000000000000    0.0000000000000    5.8302121431905 
 O    0.0000000000000    0.0000000000000    9.7978944444595 
 O    0.0000000000000    0.0000000000000   13.6085138723073 
 O    1.9434040846232    1.9434040846232   16.1616628819259 
21
FORCE:  0.040057  ...  ENERGY:  -126.64215437
Sr    1.9434040846232    1.9434040846232    1.9434039459060 
Sr    1.9434040846232    1.9434040846232    5.8302121431905 
Sr    1.9434040846232    1.9434040846232    9.7720829492645 
Sr    1.9434040846232    1.9434040846232   13.5966090047884 
Fe    0.0000000000000    0.0000000000000    0.0000000000000 
Fe    0.0000000000000    0.0000000000000    3.8868081972844 
Fe    0.0000000000000    0.0000000000000    7.8132343225169 
Fe    0.0000000000000    0.0000000000000   11.7486782963080 
 O    1.9434040846232    0.0000000000000   -0.0000000000000 
 O    1.9434040846232    0.0000000000000    3.8868081972844 
 O    1.9434040846232    0.0000000000000    7.8071603107714 
 O    1.9434040846232    0.0000000000000   11.7155898393446 
 O    0.0000000000000    1.9434040846232    0.0000000000000 
 O    0.0000000000000    1.9434040846232    3.8868081972844 
 O    0.0000000000000    1.9434040846232    7.8071603107714 
 O    0.0000000000000    1.9434040846232   11.7155898393446 
 O    0.0000000000000    0.0000000000000    1.9434039459060 
 O    0.0000000000000    0.0000000000000    5.8302121431905 
 O    0.0000000000000    0.0000000000000    9.7975055781876 
 O    0.0000000000000    0.0000000000000   13.6070268330206 
 O    1.9434040846232    1.9434040846232   16.1619927920388 
21
FORCE:  0.025360  ...  ENERGY:  -126.64255159
Sr    1.9434040846232    1.9434040846232    1.9434039459060 
Sr    1.9434040846232    1.9434040846232    5.8302121431905 
Sr    1.9434040846232    1.9434040846232    9.7723786464768 
Sr    1.9434040846232    1.9434040846232   13.5947676176027 
Fe    0.0000000000000    0.0000000000000    0.0000000000000 
Fe    0.0000000000000    0.0000000000000    3.8868081972844 
Fe    0.0000000000000    0.0000000000000    7.8135141351683 
Fe    0.0000000000000    0.0000000000000   11.7490353934580 
 O    1.9434040846232    0.0000000000000   -0.0000000000000 
 O    1.9434040846232    0.0000000000000    3.8868081972844 
 O    1.9434040846232    0.0000000000000    7.8071651983287 
 O    1.9434040846232    0.0000000000000   11.7156203865773 
 O    0.0000000000000    1.9434040846232    0.0000000000000 
 O    0.0000000000000    1.9434040846232    3.8868081972844 
 O    0.0000000000000    1.9434040846232    7.8071651983287 
 O    0.0000000000000    1.9434040846232   11.7156203865773 
 O    0.0000000000000    0.0000000000000    1.9434039459060 
 O    0.0000000000000    0.0000000000000    5.8302121431905 
 O    0.0000000000000    0.0000000000000    9.7973904151204 
 O    0.0000000000000    0.0000000000000   13.6065857309808 
 O    1.9434040846232    1.9434040846232   16.1620905431833 
21
FORCE:  0.049697  ...  ENERGY:  -126.64265463
Sr    1.9434040846232    1.9434040846232    1.9434039459060 
Sr    1.9434040846232    1.9434040846232    5.8302121431905 
Sr    1.9434040846232    1.9434040846232    9.7728667912550 
Sr    1.9434040846232    1.9434040846232   13.5917284734236 
Fe    0.0000000000000    0.0000000000000    0.0000000000000 
Fe    0.0000000000000    0.0000000000000    3.8868081972844 
Fe    0.0000000000000    0.0000000000000    7.8139757038540 
Fe    0.0000000000000    0.0000000000000   11.7496243441040 
 O    1.9434040846232    0.0000000000000   -0.0000000000000 
 O    1.9434040846232    0.0000000000000    3.8868081972844 
 O    1.9434040846232    0.0000000000000    7.8071734460815 
 O    1.9434040846232    0.0000000000000   11.7156707895112 
 O    0.0000000000000    1.9434040846232    0.0000000000000 
 O    0.0000000000000    1.9434040846232    3.8868081972844 
 O    0.0000000000000    1.9434040846232    7.8071734460815 
 O    0.0000000000000    1.9434040846232   11.7156707895112 
 O    0.0000000000000    0.0000000000000    1.9434039459060 
 O    0.0000000000000    0.0000000000000    5.8302121431905 
 O    0.0000000000000    0.0000000000000    9.7971998003885 
 O    0.0000000000000    0.0000000000000   13.6058574849537 
 O    1.9434040846232    1.9434040846232   16.1622521380442 
21
FORCE:  0.042348  ...  ENERGY:  -126.64313976
Sr    1.9434040846232    1.9434040846232    1.9434039459060 
Sr    1.9434040846232    1.9434040846232    5.8302121431905 
Sr    1.9434040846232    1.9434040846232    9.7725735378213 
Sr    1.9434040846232    1.9434040846232   13.5935548924654 
Fe    0.0000000000000    0.0000000000000    0.0000000000000 
Fe    0.0000000000000    0.0000000000000    3.8868081972844 
Fe    0.0000000000000    0.0000000000000    7.8136983349813 
Fe    0.0000000000000    0.0000000000000   11.7492703016773 
 O    1.9434040846232    0.0000000000000   -0.0000000000000 
 O    1.9434040846232    0.0000000000000    3.8868081972844 
 O    1.9434040846232    0.0000000000000    7.8071685585243 
 O    1.9434040846232    0.0000000000000   11.7156405477509 
 O    0.0000000000000    1.9434040846232    0.0000000000000 
 O    0.0000000000000    1.9434040846232    3.8868081972844 
 O    0.0000000000000    1.9434040846232    7.8071685585243 
 O    0.0000000000000    1.9434040846232   11.7156405477509 
 O    0.0000000000000    0.0000000000000    1.9434039459060 
 O    0.0000000000000    0.0000000000000    5.8302121431905 
 O    0.0000000000000    0.0000000000000    9.7973143525110 
 O    0.0000000000000    0.0000000000000   13.6062949213257 
 O    1.9434040846232    1.9434040846232   16.1621553033166 
21
FORCE:  0.040081  ...  ENERGY:  -126.64318380
Sr    1.9434040846232    1.9434040846232    1.9434039459060 
Sr    1.9434040846232    1.9434040846232    5.8302121431905 
Sr    1.9434040846232    1.9434040846232    9.7727418530733 
Sr    1.9434040846232    1.9434040846232   13.5925065114399 
Fe    0.0000000000000    0.0000000000000    0.0000000000000 
Fe    0.0000000000000    0.0000000000000    3.8868081972844 
Fe    0.0000000000000    0.0000000000000    7.8138574860636 
Fe    0.0000000000000    0.0000000000000   11.7494734407746 
 O    1.9434040846232    0.0000000000000   -0.0000000000000 
 O    1.9434040846232    0.0000000000000    3.8868081972844 
 O    1.9434040846232    0.0000000000000    7.8071713077752 
 O    1.9434040846232    0.0000000000000   11.7156579596735 
 O    0.0000000000000    1.9434040846232    0.0000000000000 
 O    0.0000000000000    1.9434040846232    3.8868081972844 
 O    0.0000000000000    1.9434040846232    7.8071713077752 
 O    0.0000000000000    1.9434040846232   11.7156579596735 
 O    0.0000000000000    0.0000000000000    1.9434039459060 
 O    0.0000000000000    0.0000000000000    5.8302121431905 
 O    0.0000000000000    0.0000000000000    9.7972486759608 
 O    0.0000000000000    0.0000000000000   13.6060438230731 
 O    1.9434040846232    1.9434040846232   16.1622108992801 
21
FORCE:  0.023579  ...  ENERGY:  -126.64312042
Sr    1.9434040846232    1.9434040846232    1.9434039459060 
Sr    1.9434040846232    1.9434040846232    5.8302121431905 
Sr    1.9434040846232    1.9434040846232    9.7728102788745 
Sr    1.9434040846232    1.9434040846232   13.5920788501824 
Fe    0.0000000000000    0.0000000000000    0.0000000000000 
Fe    0.0000000000000    0.0000000000000    3.8868081972844 
Fe    0.0000000000000    0.0000000000000    7.8139225516692 
Fe    0.0000000000000    0.0000000000000   11.7495565292475 
 O    1.9434040846232    0.0000000000000   -0.0000000000000 
 O    1.9434040846232    0.0000000000000    3.8868081972844 
 O    1.9434040846232    0.0000000000000    7.8071725296645 
 O    1.9434040846232    0.0000000000000   11.7156649855370 
 O    0.0000000000000    1.9434040846232    0.0000000000000 
 O    0.0000000000000    1.9434040846232    3.8868081972844 
 O    0.0000000000000    1.9434040846232    7.8071725296645 
 O    0.0000000000000    1.9434040846232   11.7156649855370 
 O    0.0000000000000    0.0000000000000    1.9434039459060 
 O    0.0000000000000    0.0000000000000    5.8302121431905 
 O    0.0000000000000    0.0000000000000    9.7972217943960 
 O    0.0000000000000    0.0000000000000   13.6059414898436 
 O    1.9434040846232    1.9434040846232   16.1622335042323 
21
FORCE:  0.015219  ...  ENERGY:  -126.64304320
Sr    1.9434040846232    1.9434040846232    1.9434039459060 
Sr    1.9434040846232    1.9434040846232    5.8302121431905 
Sr    1.9434040846232    1.9434040846232    9.7728338002437 
Sr    1.9434040846232    1.9434040846232   13.5919334453549 
Fe    0.0000000000000    0.0000000000000    0.0000000000000 
Fe    0.0000000000000    0.0000000000000    3.8868081972844 
Fe    0.0000000000000    0.0000000000000    7.8139445456767 
Fe    0.0000000000000    0.0000000000000   11.7495846327016 
 O    1.9434040846232    0.0000000000000   -0.0000000000000 
 O    1.9434040846232    0.0000000000000    3.8868081972844 
 O    1.9434040846232    0.0000000000000    7.8071728351368 
 O    1.9434040846232    0.0000000000000   11.7156674293156 
 O    0.0000000000000    1.9434040846232    0.0000000000000 
 O    0.0000000000000    1.9434040846232    3.8868081972844 
 O    0.0000000000000    1.9434040846232    7.8071728351368 
 O    0.0000000000000    1.9434040846232   11.7156674293156 
 O    0.0000000000000    0.0000000000000    1.9434039459060 
 O    0.0000000000000    0.0000000000000    5.8302121431905 
 O    0.0000000000000    0.0000000000000    9.7972126302262 
 O    0.0000000000000    0.0000000000000   13.6059063605260 
 O    1.9434040846232    1.9434040846232   16.1622414465128 
21
FORCE:  0.012981  ...  ENERGY:  -126.64317104
Sr    1.9434040846232    1.9434040846232    1.9434039459060 
Sr    1.9434040846232    1.9434040846232    5.8302121431905 
Sr    1.9434040846232    1.9434040846232    9.7728301345758 
Sr    1.9434040846232    1.9434040846232   13.5919566612517 
Fe    0.0000000000000    0.0000000000000    0.0000000000000 
Fe    0.0000000000000    0.0000000000000    3.8868081972844 
Fe    0.0000000000000    0.0000000000000    7.8139411854811 
Fe    0.0000000000000    0.0000000000000   11.7495800506167 
 O    1.9434040846232    0.0000000000000   -0.0000000000000 
 O    1.9434040846232    0.0000000000000    3.8868081972844 
 O    1.9434040846232    0.0000000000000    7.8071728351368 
 O    1.9434040846232    0.0000000000000   11.7156671238433 
 O    0.0000000000000    1.9434040846232    0.0000000000000 
 O    0.0000000000000    1.9434040846232    3.8868081972844 
 O    0.0000000000000    1.9434040846232    7.8071728351368 
 O    0.0000000000000    1.9434040846232   11.7156671238433 
 O    0.0000000000000    0.0000000000000    1.9434039459060 
 O    0.0000000000000    0.0000000000000    5.8302121431905 
 O    0.0000000000000    0.0000000000000    9.7972141575878 
 O    0.0000000000000    0.0000000000000   13.6059121645002 
 O    1.9434040846232    1.9434040846232   16.1622402246234 
21
FORCE:  0.007124  ...  ENERGY:  -126.64307376
Sr    1.9434040846232    1.9434040846232    1.9434039459060 
Sr    1.9434040846232    1.9434040846232    5.8302121431905 
Sr    1.9434040846232    1.9434040846232    9.7728328838267 
Sr    1.9434040846232    1.9434040846232   13.5919389438568 
Fe    0.0000000000000    0.0000000000000    0.0000000000000 
Fe    0.0000000000000    0.0000000000000    3.8868081972844 
Fe    0.0000000000000    0.0000000000000    7.8139439347320 
Fe    0.0000000000000    0.0000000000000   11.7495834108122 
 O    1.9434040846232    0.0000000000000   -0.0000000000000 
 O    1.9434040846232    0.0000000000000    3.8868081972844 
 O    1.9434040846232    0.0000000000000    7.8071728351368 
 O    1.9434040846232    0.0000000000000   11.7156674293156 
 O    0.0000000000000    1.9434040846232    0.0000000000000 
 O    0.0000000000000    1.9434040846232    3.8868081972844 
 O    0.0000000000000    1.9434040846232    7.8071728351368 
 O    0.0000000000000    1.9434040846232   11.7156674293156 
 O    0.0000000000000    0.0000000000000    1.9434039459060 
 O    0.0000000000000    0.0000000000000    5.8302121431905 
 O    0.0000000000000    0.0000000000000    9.7972129356985 
 O    0.0000000000000    0.0000000000000   13.6059078878876 
 O    1.9434040846232    1.9434040846232   16.1622411410404 
