21
FORCE:  0.132618  ...  ENERGY:  -126.64155240
Sr    1.9434040846232    1.9434040846232    1.9434039459060 
Sr    1.9434040846232    1.9434040846232    5.8302121431905 
Sr    1.9434040846232    1.9434040846232    9.7701676377756 
Sr    1.9434040846232    1.9434040846232   13.5729559770543 
Fe    0.0000000000000    0.0000000000000    0.0000000000000 
Fe    0.0000000000000    0.0000000000000    3.8868081972844 
Fe    0.0000000000000    0.0000000000000    7.8140251903709 
Fe    0.0000000000000    0.0000000000000   11.7483502190291 
 O    1.9434040846232    0.0000000000000   -0.0000000000000 
 O    1.9434040846232    0.0000000000000    3.8868081972844 
 O    1.9434040846232    0.0000000000000    7.8109261736159 
 O    1.9434040846232    0.0000000000000   11.7161879541605 
 O    0.0000000000000    1.9434040846232    0.0000000000000 
 O    0.0000000000000    1.9434040846232    3.8868081972844 
 O    0.0000000000000    1.9434040846232    7.8109261736159 
 O    0.0000000000000    1.9434040846232   11.7161879541605 
 O    0.0000000000000    0.0000000000000    1.9434039459060 
 O    0.0000000000000    0.0000000000000    5.8302121431905 
 O    0.0000000000000    0.0000000000000    9.7985490716558 
 O    0.0000000000000    0.0000000000000   13.6001249912696 
 O    1.9434040846232    1.9434040846232   16.1614169767028 
21
FORCE:  0.066210  ...  ENERGY:  -126.64154759
Sr    1.9434040846232    1.9434040846232    1.9434039459060 
Sr    1.9434040846232    1.9434040846232    5.8302121431905 
Sr    1.9434040846232    1.9434040846232    9.7699736628481 
Sr    1.9434040846232    1.9434040846232   13.5793537894662 
Fe    0.0000000000000    0.0000000000000    0.0000000000000 
Fe    0.0000000000000    0.0000000000000    3.8868081972844 
Fe    0.0000000000000    0.0000000000000    7.8144278028976 
Fe    0.0000000000000    0.0000000000000   11.7463863374403 
 O    1.9434040846232    0.0000000000000   -0.0000000000000 
 O    1.9434040846232    0.0000000000000    3.8868081972844 
 O    1.9434040846232    0.0000000000000    7.8096728206591 
 O    1.9434040846232    0.0000000000000   11.7153301878669 
 O    0.0000000000000    1.9434040846232    0.0000000000000 
 O    0.0000000000000    1.9434040846232    3.8868081972844 
 O    0.0000000000000    1.9434040846232    7.8096728206591 
 O    0.0000000000000    1.9434040846232   11.7153301878669 
 O    0.0000000000000    0.0000000000000    1.9434039459060 
 O    0.0000000000000    0.0000000000000    5.8302121431905 
 O    0.0000000000000    0.0000000000000    9.7981898361995 
 O    0.0000000000000    0.0000000000000   13.6020549654301 
 O    1.9434040846232    1.9434040846232   16.1578386738670 
21
FORCE:  0.063046  ...  ENERGY:  -126.64189932
Sr    1.9434040846232    1.9434040846232    1.9434039459060 
Sr    1.9434040846232    1.9434040846232    5.8302121431905 
Sr    1.9434040846232    1.9434040846232    9.7698404769137 
Sr    1.9434040846232    1.9434040846232   13.5837532019163 
Fe    0.0000000000000    0.0000000000000    0.0000000000000 
Fe    0.0000000000000    0.0000000000000    3.8868081972844 
Fe    0.0000000000000    0.0000000000000    7.8147045608257 
Fe    0.0000000000000    0.0000000000000   11.7450358442836 
 O    1.9434040846232    0.0000000000000   -0.0000000000000 
 O    1.9434040846232    0.0000000000000    3.8868081972844 
 O    1.9434040846232    0.0000000000000    7.8088107777530 
 O    1.9434040846232    0.0000000000000   11.7147400153316 
 O    0.0000000000000    1.9434040846232    0.0000000000000 
 O    0.0000000000000    1.9434040846232    3.8868081972844 
 O    0.0000000000000    1.9434040846232    7.8088107777530 
 O    0.0000000000000    1.9434040846232   11.7147400153316 
 O    0.0000000000000    0.0000000000000    1.9434039459060 
 O    0.0000000000000    0.0000000000000    5.8302121431905 
 O    0.0000000000000    0.0000000000000    9.7979427090872 
 O    0.0000000000000    0.0000000000000   13.6033822426899 
 O    1.9434040846232    1.9434040846232   16.1553777888026 
21
FORCE:  0.150699  ...  ENERGY:  -126.64142842
Sr    1.9434040846232    1.9434040846232    1.9434039459060 
Sr    1.9434040846232    1.9434040846232    5.8302121431905 
Sr    1.9434040846232    1.9434040846232    9.7695737995724 
Sr    1.9434040846232    1.9434040846232   13.5925523322889 
Fe    0.0000000000000    0.0000000000000    0.0000000000000 
Fe    0.0000000000000    0.0000000000000    3.8868081972844 
Fe    0.0000000000000    0.0000000000000    7.8152583821541 
Fe    0.0000000000000    0.0000000000000   11.7423345524980 
 O    1.9434040846232    0.0000000000000   -0.0000000000000 
 O    1.9434040846232    0.0000000000000    3.8868081972844 
 O    1.9434040846232    0.0000000000000    7.8070869974130 
 O    1.9434040846232    0.0000000000000   11.7135602812056 
 O    0.0000000000000    1.9434040846232    0.0000000000000 
 O    0.0000000000000    1.9434040846232    3.8868081972844 
 O    0.0000000000000    1.9434040846232    7.8070869974130 
 O    0.0000000000000    1.9434040846232   11.7135602812056 
 O    0.0000000000000    0.0000000000000    1.9434039459060 
 O    0.0000000000000    0.0000000000000    5.8302121431905 
 O    0.0000000000000    0.0000000000000    9.7974490658071 
 O    0.0000000000000    0.0000000000000   13.6060367972095 
 O    1.9434040846232    1.9434040846232   16.1504566296183 
21
FORCE:  0.082479  ...  ENERGY:  -126.64284921
Sr    1.9434040846232    1.9434040846232    1.9434039459060 
Sr    1.9434040846232    1.9434040846232    5.8302121431905 
Sr    1.9434040846232    1.9434040846232    9.7698007655112 
Sr    1.9434040846232    1.9434040846232   13.5850603180026 
Fe    0.0000000000000    0.0000000000000    0.0000000000000 
Fe    0.0000000000000    0.0000000000000    3.8868081972844 
Fe    0.0000000000000    0.0000000000000    7.8147870383539 
Fe    0.0000000000000    0.0000000000000   11.7446344536462 
 O    1.9434040846232    0.0000000000000   -0.0000000000000 
 O    1.9434040846232    0.0000000000000    3.8868081972844 
 O    1.9434040846232    0.0000000000000    7.8085547919432 
 O    1.9434040846232    0.0000000000000   11.7145646742160 
 O    0.0000000000000    1.9434040846232    0.0000000000000 
 O    0.0000000000000    1.9434040846232    3.8868081972844 
 O    0.0000000000000    1.9434040846232    7.8085547919432 
 O    0.0000000000000    1.9434040846232   11.7145646742160 
 O    0.0000000000000    0.0000000000000    1.9434039459060 
 O    0.0000000000000    0.0000000000000    5.8302121431905 
 O    0.0000000000000    0.0000000000000    9.7978693957288 
 O    0.0000000000000    0.0000000000000   13.6037766074638 
 O    1.9434040846232    1.9434040846232   16.1546467935246 
21
FORCE:  0.021869  ...  ENERGY:  -126.64281537
Sr    1.9434040846232    1.9434040846232    1.9434039459060 
Sr    1.9434040846232    1.9434040846232    5.8302121431905 
Sr    1.9434040846232    1.9434040846232    9.7701193731480 
Sr    1.9434040846232    1.9434040846232   13.5895128826376 
Fe    0.0000000000000    0.0000000000000    0.0000000000000 
Fe    0.0000000000000    0.0000000000000    3.8868081972844 
Fe    0.0000000000000    0.0000000000000    7.8134490695627 
Fe    0.0000000000000    0.0000000000000   11.7484882925208 
 O    1.9434040846232    0.0000000000000   -0.0000000000000 
 O    1.9434040846232    0.0000000000000    3.8868081972844 
 O    1.9434040846232    0.0000000000000    7.8076796137270 
 O    1.9434040846232    0.0000000000000   11.7137707516387 
 O    0.0000000000000    1.9434040846232    0.0000000000000 
 O    0.0000000000000    1.9434040846232    3.8868081972844 
 O    0.0000000000000    1.9434040846232    7.8076796137270 
 O    0.0000000000000    1.9434040846232   11.7137707516387 
 O    0.0000000000000    0.0000000000000    1.9434039459060 
 O    0.0000000000000    0.0000000000000    5.8302121431905 
 O    0.0000000000000    0.0000000000000    9.7961816611233 
 O    0.0000000000000    0.0000000000000   13.6024181720266 
 O    1.9434040846232    1.9434040846232   16.1522360059217 
21
FORCE:  0.033927  ...  ENERGY:  -126.64302800
Sr    1.9434040846232    1.9434040846232    1.9434039459060 
Sr    1.9434040846232    1.9434040846232    5.8302121431905 
Sr    1.9434040846232    1.9434040846232    9.7700439214833 
Sr    1.9434040846232    1.9434040846232   13.5884577812209 
Fe    0.0000000000000    0.0000000000000    0.0000000000000 
Fe    0.0000000000000    0.0000000000000    3.8868081972844 
Fe    0.0000000000000    0.0000000000000    7.8137661498378 
Fe    0.0000000000000    0.0000000000000   11.7475752357361 
 O    1.9434040846232    0.0000000000000   -0.0000000000000 
 O    1.9434040846232    0.0000000000000    3.8868081972844 
 O    1.9434040846232    0.0000000000000    7.8078870294368 
 O    1.9434040846232    0.0000000000000   11.7139589225920 
 O    0.0000000000000    1.9434040846232    0.0000000000000 
 O    0.0000000000000    1.9434040846232    3.8868081972844 
 O    0.0000000000000    1.9434040846232    7.8078870294368 
 O    0.0000000000000    1.9434040846232   11.7139589225920 
 O    0.0000000000000    0.0000000000000    1.9434039459060 
 O    0.0000000000000    0.0000000000000    5.8302121431905 
 O    0.0000000000000    0.0000000000000    9.7965815243991 
 O    0.0000000000000    0.0000000000000   13.6027401398590 
 O    1.9434040846232    1.9434040846232   16.1528072391728 
21
FORCE:  0.054302  ...  ENERGY:  -126.64330603
Sr    1.9434040846232    1.9434040846232    1.9434039459060 
Sr    1.9434040846232    1.9434040846232    5.8302121431905 
Sr    1.9434040846232    1.9434040846232    9.7699846598519 
Sr    1.9434040846232    1.9434040846232   13.5876284238537 
Fe    0.0000000000000    0.0000000000000    0.0000000000000 
Fe    0.0000000000000    0.0000000000000    3.8868081972844 
Fe    0.0000000000000    0.0000000000000    7.8140154152565 
Fe    0.0000000000000    0.0000000000000   11.7468573757682 
 O    1.9434040846232    0.0000000000000   -0.0000000000000 
 O    1.9434040846232    0.0000000000000    3.8868081972844 
 O    1.9434040846232    0.0000000000000    7.8080501516593 
 O    1.9434040846232    0.0000000000000   11.7141070766705 
 O    0.0000000000000    1.9434040846232    0.0000000000000 
 O    0.0000000000000    1.9434040846232    3.8868081972844 
 O    0.0000000000000    1.9434040846232    7.8080501516593 
 O    0.0000000000000    1.9434040846232   11.7141070766705 
 O    0.0000000000000    0.0000000000000    1.9434039459060 
 O    0.0000000000000    0.0000000000000    5.8302121431905 
 O    0.0000000000000    0.0000000000000    9.7968961608957 
 O    0.0000000000000    0.0000000000000   13.6029933764179 
 O    1.9434040846232    1.9434040846232   16.1532562834931 
21
FORCE:  0.067783  ...  ENERGY:  -126.64348113
Sr    1.9434040846232    1.9434040846232    1.9434039459060 
Sr    1.9434040846232    1.9434040846232    5.8302121431905 
Sr    1.9434040846232    1.9434040846232    9.7698927126815 
Sr    1.9434040846232    1.9434040846232   13.5863442181920 
Fe    0.0000000000000    0.0000000000000    0.0000000000000 
Fe    0.0000000000000    0.0000000000000    3.8868081972844 
Fe    0.0000000000000    0.0000000000000    7.8144012268052 
Fe    0.0000000000000    0.0000000000000   11.7457457619710 
 O    1.9434040846232    0.0000000000000   -0.0000000000000 
 O    1.9434040846232    0.0000000000000    3.8868081972844 
 O    1.9434040846232    0.0000000000000    7.8083024718012 
 O    1.9434040846232    0.0000000000000   11.7143358754433 
 O    0.0000000000000    1.9434040846232    0.0000000000000 
 O    0.0000000000000    1.9434040846232    3.8868081972844 
 O    0.0000000000000    1.9434040846232    7.8083024718012 
 O    0.0000000000000    1.9434040846232   11.7143358754433 
 O    0.0000000000000    0.0000000000000    1.9434039459060 
 O    0.0000000000000    0.0000000000000    5.8302121431905 
 O    0.0000000000000    0.0000000000000    9.7973827783122 
 O    0.0000000000000    0.0000000000000   13.6033849919409 
 O    1.9434040846232    1.9434040846232   16.1539515385089 
21
FORCE:  0.063733  ...  ENERGY:  -126.64298150
Sr    1.9434040846232    1.9434040846232    1.9434039459060 
Sr    1.9434040846232    1.9434040846232    5.8302121431905 
Sr    1.9434040846232    1.9434040846232    9.7698468918325 
Sr    1.9434040846232    1.9434040846232   13.5857024208335 
Fe    0.0000000000000    0.0000000000000    0.0000000000000 
Fe    0.0000000000000    0.0000000000000    3.8868081972844 
Fe    0.0000000000000    0.0000000000000    7.8145939798434 
Fe    0.0000000000000    0.0000000000000   11.7451901078086 
 O    1.9434040846232    0.0000000000000   -0.0000000000000 
 O    1.9434040846232    0.0000000000000    3.8868081972844 
 O    1.9434040846232    0.0000000000000    7.8084286318722 
 O    1.9434040846232    0.0000000000000   11.7144504275658 
 O    0.0000000000000    1.9434040846232    0.0000000000000 
 O    0.0000000000000    1.9434040846232    3.8868081972844 
 O    0.0000000000000    1.9434040846232    7.8084286318722 
 O    0.0000000000000    1.9434040846232   11.7144504275658 
 O    0.0000000000000    0.0000000000000    1.9434039459060 
 O    0.0000000000000    0.0000000000000    5.8302121431905 
 O    0.0000000000000    0.0000000000000    9.7976262397566 
 O    0.0000000000000    0.0000000000000   13.6035807997023 
 O    1.9434040846232    1.9434040846232   16.1542991660167 
21
FORCE:  0.060693  ...  ENERGY:  -126.64372078
Sr    1.9434040846232    1.9434040846232    1.9434039459060 
Sr    1.9434040846232    1.9434040846232    5.8302121431905 
Sr    1.9434040846232    1.9434040846232    9.7698795773715 
Sr    1.9434040846232    1.9434040846232   13.5861609347959 
Fe    0.0000000000000    0.0000000000000    0.0000000000000 
Fe    0.0000000000000    0.0000000000000    3.8868081972844 
Fe    0.0000000000000    0.0000000000000    7.8144562118240 
Fe    0.0000000000000    0.0000000000000   11.7455872218334 
 O    1.9434040846232    0.0000000000000   -0.0000000000000 
 O    1.9434040846232    0.0000000000000    3.8868081972844 
 O    1.9434040846232    0.0000000000000    7.8083385175358 
 O    1.9434040846232    0.0000000000000   11.7143685609822 
 O    0.0000000000000    1.9434040846232    0.0000000000000 
 O    0.0000000000000    1.9434040846232    3.8868081972844 
 O    0.0000000000000    1.9434040846232    7.8083385175358 
 O    0.0000000000000    1.9434040846232   11.7143685609822 
 O    0.0000000000000    0.0000000000000    1.9434039459060 
 O    0.0000000000000    0.0000000000000    5.8302121431905 
 O    0.0000000000000    0.0000000000000    9.7974521205304 
 O    0.0000000000000    0.0000000000000   13.6034408933767 
 O    1.9434040846232    1.9434040846232   16.1540508170151 
21
FORCE:  0.065824  ...  ENERGY:  -126.64312878
Sr    1.9434040846232    1.9434040846232    1.9434039459060 
Sr    1.9434040846232    1.9434040846232    5.8302121431905 
Sr    1.9434040846232    1.9434040846232    9.7702333143259 
Sr    1.9434040846232    1.9434040846232   13.5860598234558 
Fe    0.0000000000000    0.0000000000000    0.0000000000000 
Fe    0.0000000000000    0.0000000000000    3.8868081972844 
Fe    0.0000000000000    0.0000000000000    7.8127706155249 
Fe    0.0000000000000    0.0000000000000   11.7502285683664 
 O    1.9434040846232    0.0000000000000   -0.0000000000000 
 O    1.9434040846232    0.0000000000000    3.8868081972844 
 O    1.9434040846232    0.0000000000000    7.8076209630402 
 O    1.9434040846232    0.0000000000000   11.7136876631658 
 O    0.0000000000000    1.9434040846232    0.0000000000000 
 O    0.0000000000000    1.9434040846232    3.8868081972844 
 O    0.0000000000000    1.9434040846232    7.8076209630402 
 O    0.0000000000000    1.9434040846232   11.7136876631658 
 O    0.0000000000000    0.0000000000000    1.9434039459060 
 O    0.0000000000000    0.0000000000000    5.8302121431905 
 O    0.0000000000000    0.0000000000000    9.7955917940604 
 O    0.0000000000000    0.0000000000000   13.6018900103736 
 O    1.9434040846232    1.9434040846232   16.1558741813336 
21
FORCE:  0.026516  ...  ENERGY:  -126.64328218
Sr    1.9434040846232    1.9434040846232    1.9434039459060 
Sr    1.9434040846232    1.9434040846232    5.8302121431905 
Sr    1.9434040846232    1.9434040846232    9.7700900478046 
Sr    1.9434040846232    1.9434040846232   13.5861007567476 
Fe    0.0000000000000    0.0000000000000    0.0000000000000 
Fe    0.0000000000000    0.0000000000000    3.8868081972844 
Fe    0.0000000000000    0.0000000000000    7.8134536516476 
Fe    0.0000000000000    0.0000000000000   11.7483483861951 
 O    1.9434040846232    0.0000000000000   -0.0000000000000 
 O    1.9434040846232    0.0000000000000    3.8868081972844 
 O    1.9434040846232    0.0000000000000    7.8079117726953 
 O    1.9434040846232    0.0000000000000   11.7139635046769 
 O    0.0000000000000    1.9434040846232    0.0000000000000 
 O    0.0000000000000    1.9434040846232    3.8868081972844 
 O    0.0000000000000    1.9434040846232    7.8079117726953 
 O    0.0000000000000    1.9434040846232   11.7139635046769 
 O    0.0000000000000    0.0000000000000    1.9434039459060 
 O    0.0000000000000    0.0000000000000    5.8302121431905 
 O    0.0000000000000    0.0000000000000    9.7963453942905 
 O    0.0000000000000    0.0000000000000   13.6025183669498 
 O    1.9434040846232    1.9434040846232   16.1551355492474 
21
FORCE:  0.018048  ...  ENERGY:  -126.64300030
Sr    1.9434040846232    1.9434040846232    1.9434039459060 
Sr    1.9434040846232    1.9434040846232    5.8302121431905 
Sr    1.9434040846232    1.9434040846232    9.7700662209631 
Sr    1.9434040846232    1.9434040846232   13.5861074771388 
Fe    0.0000000000000    0.0000000000000    0.0000000000000 
Fe    0.0000000000000    0.0000000000000    3.8868081972844 
Fe    0.0000000000000    0.0000000000000    7.8135669818808 
Fe    0.0000000000000    0.0000000000000   11.7480358880048 
 O    1.9434040846232    0.0000000000000   -0.0000000000000 
 O    1.9434040846232    0.0000000000000    3.8868081972844 
 O    1.9434040846232    0.0000000000000    7.8079600373229 
 O    1.9434040846232    0.0000000000000   11.7140093255259 
 O    0.0000000000000    1.9434040846232    0.0000000000000 
 O    0.0000000000000    1.9434040846232    3.8868081972844 
 O    0.0000000000000    1.9434040846232    7.8079600373229 
 O    0.0000000000000    1.9434040846232   11.7140093255259 
 O    0.0000000000000    0.0000000000000    1.9434039459060 
 O    0.0000000000000    0.0000000000000    5.8302121431905 
 O    0.0000000000000    0.0000000000000    9.7964706379445 
 O    0.0000000000000    0.0000000000000   13.6026228384856 
 O    1.9434040846232    1.9434040846232   16.1550127493721 
21
FORCE:  0.032999  ...  ENERGY:  -126.64332362
Sr    1.9434040846232    1.9434040846232    1.9434039459060 
Sr    1.9434040846232    1.9434040846232    5.8302121431905 
Sr    1.9434040846232    1.9434040846232    9.7699727464311 
Sr    1.9434040846232    1.9434040846232   13.5861343587035 
Fe    0.0000000000000    0.0000000000000    0.0000000000000 
Fe    0.0000000000000    0.0000000000000    3.8868081972844 
Fe    0.0000000000000    0.0000000000000    7.8140117495886 
Fe    0.0000000000000    0.0000000000000   11.7468115549191 
 O    1.9434040846232    0.0000000000000   -0.0000000000000 
 O    1.9434040846232    0.0000000000000    3.8868081972844 
 O    1.9434040846232    0.0000000000000    7.8081491246932 
 O    1.9434040846232    0.0000000000000   11.7141889432541 
 O    0.0000000000000    1.9434040846232    0.0000000000000 
 O    0.0000000000000    1.9434040846232    3.8868081972844 
 O    0.0000000000000    1.9434040846232    7.8081491246932 
 O    0.0000000000000    1.9434040846232   11.7141889432541 
 O    0.0000000000000    0.0000000000000    1.9434039459060 
 O    0.0000000000000    0.0000000000000    5.8302121431905 
 O    0.0000000000000    0.0000000000000    9.7969615319736 
 O    0.0000000000000    0.0000000000000   13.6030318659311 
 O    1.9434040846232    1.9434040846232   16.1545319359297 
21
FORCE:  0.011092  ...  ENERGY:  -126.64307179
Sr    1.9434040846232    1.9434040846232    1.9434039459060 
Sr    1.9434040846232    1.9434040846232    5.8302121431905 
Sr    1.9434040846232    1.9434040846232    9.7700375065644 
Sr    1.9434040846232    1.9434040846232   13.5861157248916 
Fe    0.0000000000000    0.0000000000000    0.0000000000000 
Fe    0.0000000000000    0.0000000000000    3.8868081972844 
Fe    0.0000000000000    0.0000000000000    7.8137032225385 
Fe    0.0000000000000    0.0000000000000   11.7476610734599 
 O    1.9434040846232    0.0000000000000   -0.0000000000000 
 O    1.9434040846232    0.0000000000000    3.8868081972844 
 O    1.9434040846232    0.0000000000000    7.8080177715927 
 O    1.9434040846232    0.0000000000000   11.7140643105448 
 O    0.0000000000000    1.9434040846232    0.0000000000000 
 O    0.0000000000000    1.9434040846232    3.8868081972844 
 O    0.0000000000000    1.9434040846232    7.8080177715927 
 O    0.0000000000000    1.9434040846232   11.7140643105448 
 O    0.0000000000000    0.0000000000000    1.9434039459060 
 O    0.0000000000000    0.0000000000000    5.8302121431905 
 O    0.0000000000000    0.0000000000000    9.7966209303292 
 O    0.0000000000000    0.0000000000000   13.6027480821395 
 O    1.9434040846232    1.9434040846232   16.1548655117106 
21
FORCE:  0.010484  ...  ENERGY:  -126.64308696
Sr    1.9434040846232    1.9434040846232    1.9434039459060 
Sr    1.9434040846232    1.9434040846232    5.8302121431905 
Sr    1.9434040846232    1.9434040846232    9.7700323135349 
Sr    1.9434040846232    1.9434040846232   13.5861172522532 
Fe    0.0000000000000    0.0000000000000    0.0000000000000 
Fe    0.0000000000000    0.0000000000000    3.8868081972844 
Fe    0.0000000000000    0.0000000000000    7.8137285767417 
Fe    0.0000000000000    0.0000000000000   11.7475914257694 
 O    1.9434040846232    0.0000000000000   -0.0000000000000 
 O    1.9434040846232    0.0000000000000    3.8868081972844 
 O    1.9434040846232    0.0000000000000    7.8080287685965 
 O    1.9434040846232    0.0000000000000   11.7140746966039 
 O    0.0000000000000    1.9434040846232    0.0000000000000 
 O    0.0000000000000    1.9434040846232    3.8868081972844 
 O    0.0000000000000    1.9434040846232    7.8080287685965 
 O    0.0000000000000    1.9434040846232   11.7140746966039 
 O    0.0000000000000    0.0000000000000    1.9434039459060 
 O    0.0000000000000    0.0000000000000    5.8302121431905 
 O    0.0000000000000    0.0000000000000    9.7966490337833 
 O    0.0000000000000    0.0000000000000   13.6027712980364 
 O    1.9434040846232    1.9434040846232   16.1548380192012 
21
FORCE:  0.010696  ...  ENERGY:  -126.64311359
Sr    1.9434040846232    1.9434040846232    1.9434039459060 
Sr    1.9434040846232    1.9434040846232    5.8302121431905 
Sr    1.9434040846232    1.9434040846232    9.7700356737305 
Sr    1.9434040846232    1.9434040846232   13.5861163358362 
Fe    0.0000000000000    0.0000000000000    0.0000000000000 
Fe    0.0000000000000    0.0000000000000    3.8868081972844 
Fe    0.0000000000000    0.0000000000000    7.8137123867083 
Fe    0.0000000000000    0.0000000000000   11.7476360247291 
 O    1.9434040846232    0.0000000000000   -0.0000000000000 
 O    1.9434040846232    0.0000000000000    3.8868081972844 
 O    1.9434040846232    0.0000000000000    7.8080217427329 
 O    1.9434040846232    0.0000000000000   11.7140679762127 
 O    0.0000000000000    1.9434040846232    0.0000000000000 
 O    0.0000000000000    1.9434040846232    3.8868081972844 
 O    0.0000000000000    1.9434040846232    7.8080217427329 
 O    0.0000000000000    1.9434040846232   11.7140679762127 
 O    0.0000000000000    0.0000000000000    1.9434039459060 
 O    0.0000000000000    0.0000000000000    5.8302121431905 
 O    0.0000000000000    0.0000000000000    9.7966310109160 
 O    0.0000000000000    0.0000000000000   13.6027563298924 
 O    1.9434040846232    1.9434040846232   16.1548557365961 
21
FORCE:  0.023270  ...  ENERGY:  -126.64358395
Sr    1.9434040846232    1.9434040846232    1.9434039459060 
Sr    1.9434040846232    1.9434040846232    5.8302121431905 
Sr    1.9434040846232    1.9434040846232    9.7701780238347 
Sr    1.9434040846232    1.9434040846232   13.5865320836730 
Fe    0.0000000000000    0.0000000000000    0.0000000000000 
Fe    0.0000000000000    0.0000000000000    3.8868081972844 
Fe    0.0000000000000    0.0000000000000    7.8133461253885 
Fe    0.0000000000000    0.0000000000000   11.7478449678006 
 O    1.9434040846232    0.0000000000000   -0.0000000000000 
 O    1.9434040846232    0.0000000000000    3.8868081972844 
 O    1.9434040846232    0.0000000000000    7.8075033561944 
 O    1.9434040846232    0.0000000000000   11.7139897752970 
 O    0.0000000000000    1.9434040846232    0.0000000000000 
 O    0.0000000000000    1.9434040846232    3.8868081972844 
 O    0.0000000000000    1.9434040846232    7.8075033561944 
 O    0.0000000000000    1.9434040846232   11.7139897752970 
 O    0.0000000000000    0.0000000000000    1.9434039459060 
 O    0.0000000000000    0.0000000000000    5.8302121431905 
 O    0.0000000000000    0.0000000000000    9.7963163744195 
 O    0.0000000000000    0.0000000000000   13.6029484719859 
 O    1.9434040846232    1.9434040846232   16.1549470728218 
21
FORCE:  0.045580  ...  ENERGY:  -126.64339952
Sr    1.9434040846232    1.9434040846232    1.9434039459060 
Sr    1.9434040846232    1.9434040846232    5.8302121431905 
Sr    1.9434040846232    1.9434040846232    9.7703988803270 
Sr    1.9434040846232    1.9434040846232   13.5871775466994 
Fe    0.0000000000000    0.0000000000000    0.0000000000000 
Fe    0.0000000000000    0.0000000000000    3.8868081972844 
Fe    0.0000000000000    0.0000000000000    7.8127776413884 
Fe    0.0000000000000    0.0000000000000   11.7481693794116 
 O    1.9434040846232    0.0000000000000   -0.0000000000000 
 O    1.9434040846232    0.0000000000000    3.8868081972844 
 O    1.9434040846232    0.0000000000000    7.8066978256687 
 O    1.9434040846232    0.0000000000000   11.7138678918386 
 O    0.0000000000000    1.9434040846232    0.0000000000000 
 O    0.0000000000000    1.9434040846232    3.8868081972844 
 O    0.0000000000000    1.9434040846232    7.8066978256687 
 O    0.0000000000000    1.9434040846232   11.7138678918386 
 O    0.0000000000000    0.0000000000000    1.9434039459060 
 O    0.0000000000000    0.0000000000000    5.8302121431905 
 O    0.0000000000000    0.0000000000000    9.7958273132243 
 O    0.0000000000000    0.0000000000000   13.6032472239215 
 O    1.9434040846232    1.9434040846232   16.1550891174538 
21
FORCE:  0.012324  ...  ENERGY:  -126.64314681
Sr    1.9434040846232    1.9434040846232    1.9434039459060 
Sr    1.9434040846232    1.9434040846232    5.8302121431905 
Sr    1.9434040846232    1.9434040846232    9.7703130426032 
Sr    1.9434040846232    1.9434040846232   13.5869264484468 
Fe    0.0000000000000    0.0000000000000    0.0000000000000 
Fe    0.0000000000000    0.0000000000000    3.8868081972844 
Fe    0.0000000000000    0.0000000000000    7.8129988033530 
Fe    0.0000000000000    0.0000000000000   11.7480432193407 
 O    1.9434040846232    0.0000000000000   -0.0000000000000 
 O    1.9434040846232    0.0000000000000    3.8868081972844 
 O    1.9434040846232    0.0000000000000    7.8070112402760 
 O    1.9434040846232    0.0000000000000   11.7139152400493 
 O    0.0000000000000    1.9434040846232    0.0000000000000 
 O    0.0000000000000    1.9434040846232    3.8868081972844 
 O    0.0000000000000    1.9434040846232    7.8070112402760 
 O    0.0000000000000    1.9434040846232   11.7139152400493 
 O    0.0000000000000    0.0000000000000    1.9434039459060 
 O    0.0000000000000    0.0000000000000    5.8302121431905 
 O    0.0000000000000    0.0000000000000    9.7960176224839 
 O    0.0000000000000    0.0000000000000   13.6031311444373 
 O    1.9434040846232    1.9434040846232   16.1550338269626 
21
FORCE:  0.079861  ...  ENERGY:  -126.64359042
Sr    1.9434040846232    1.9434040846232    1.9434039459060 
Sr    1.9434040846232    1.9434040846232    5.8302121431905 
Sr    1.9434040846232    1.9434040846232    9.7703429788912 
Sr    1.9434040846232    1.9434040846232   13.5870147299493 
Fe    0.0000000000000    0.0000000000000    0.0000000000000 
Fe    0.0000000000000    0.0000000000000    3.8868081972844 
Fe    0.0000000000000    0.0000000000000    7.8129212133820 
Fe    0.0000000000000    0.0000000000000   11.7480875128281 
 O    1.9434040846232    0.0000000000000   -0.0000000000000 
 O    1.9434040846232    0.0000000000000    3.8868081972844 
 O    1.9434040846232    0.0000000000000    7.8069012702383 
 O    1.9434040846232    0.0000000000000   11.7138987445436 
 O    0.0000000000000    1.9434040846232    0.0000000000000 
 O    0.0000000000000    1.9434040846232    3.8868081972844 
 O    0.0000000000000    1.9434040846232    7.8069012702383 
 O    0.0000000000000    1.9434040846232   11.7138987445436 
 O    0.0000000000000    0.0000000000000    1.9434039459060 
 O    0.0000000000000    0.0000000000000    5.8302121431905 
 O    0.0000000000000    0.0000000000000    9.7959507240443 
 O    0.0000000000000    0.0000000000000   13.6031717722568 
 O    1.9434040846232    1.9434040846232   16.1550530717192 
21
FORCE:  0.017659  ...  ENERGY:  -126.64318232
Sr    1.9434040846232    1.9434040846232    1.9434039459060 
Sr    1.9434040846232    1.9434040846232    5.8302121431905 
Sr    1.9434040846232    1.9434040846232    9.7703185411051 
Sr    1.9434040846232    1.9434040846232   13.5869423330078 
Fe    0.0000000000000    0.0000000000000    0.0000000000000 
Fe    0.0000000000000    0.0000000000000    3.8868081972844 
Fe    0.0000000000000    0.0000000000000    7.8129847516260 
Fe    0.0000000000000    0.0000000000000   11.7480511616212 
 O    1.9434040846232    0.0000000000000   -0.0000000000000 
 O    1.9434040846232    0.0000000000000    3.8868081972844 
 O    1.9434040846232    0.0000000000000    7.8069913845747 
 O    1.9434040846232    0.0000000000000   11.7139124907984 
 O    0.0000000000000    1.9434040846232    0.0000000000000 
 O    0.0000000000000    1.9434040846232    3.8868081972844 
 O    0.0000000000000    1.9434040846232    7.8069913845747 
 O    0.0000000000000    1.9434040846232   11.7139124907984 
 O    0.0000000000000    0.0000000000000    1.9434039459060 
 O    0.0000000000000    0.0000000000000    5.8302121431905 
 O    0.0000000000000    0.0000000000000    9.7960054035908 
 O    0.0000000000000    0.0000000000000   13.6031384757732 
 O    1.9434040846232    1.9434040846232   16.1550371871582 
21
FORCE:  0.015740  ...  ENERGY:  -126.64309524
Sr    1.9434040846232    1.9434040846232    1.9434039459060 
Sr    1.9434040846232    1.9434040846232    5.8302121431905 
Sr    1.9434040846232    1.9434040846232    9.7703793300981 
Sr    1.9434040846232    1.9434040846232   13.5869652434323 
Fe    0.0000000000000    0.0000000000000    0.0000000000000 
Fe    0.0000000000000    0.0000000000000    3.8868081972844 
Fe    0.0000000000000    0.0000000000000    7.8128262114884 
Fe    0.0000000000000    0.0000000000000   11.7479885397942 
 O    1.9434040846232    0.0000000000000   -0.0000000000000 
 O    1.9434040846232    0.0000000000000    3.8868081972844 
 O    1.9434040846232    0.0000000000000    7.8066669729637 
 O    1.9434040846232    0.0000000000000   11.7138959952927 
 O    0.0000000000000    1.9434040846232    0.0000000000000 
 O    0.0000000000000    1.9434040846232    3.8868081972844 
 O    0.0000000000000    1.9434040846232    7.8066669729637 
 O    0.0000000000000    1.9434040846232   11.7138959952927 
 O    0.0000000000000    0.0000000000000    1.9434039459060 
 O    0.0000000000000    0.0000000000000    5.8302121431905 
 O    0.0000000000000    0.0000000000000    9.7958251749180 
 O    0.0000000000000    0.0000000000000   13.6033168716120 
 O    1.9434040846232    1.9434040846232   16.1553066137504 
21
FORCE:  0.030890  ...  ENERGY:  -126.64332688
Sr    1.9434040846232    1.9434040846232    1.9434039459060 
Sr    1.9434040846232    1.9434040846232    5.8302121431905 
Sr    1.9434040846232    1.9434040846232    9.7703985748547 
Sr    1.9434040846232    1.9434040846232   13.5869725747682 
Fe    0.0000000000000    0.0000000000000    0.0000000000000 
Fe    0.0000000000000    0.0000000000000    3.8868081972844 
Fe    0.0000000000000    0.0000000000000    7.8127758085545 
Fe    0.0000000000000    0.0000000000000   11.7479683786206 
 O    1.9434040846232    0.0000000000000   -0.0000000000000 
 O    1.9434040846232    0.0000000000000    3.8868081972844 
 O    1.9434040846232    0.0000000000000    7.8065631123726 
 O    1.9434040846232    0.0000000000000   11.7138908022632 
 O    0.0000000000000    1.9434040846232    0.0000000000000 
 O    0.0000000000000    1.9434040846232    3.8868081972844 
 O    0.0000000000000    1.9434040846232    7.8065631123726 
 O    0.0000000000000    1.9434040846232   11.7138908022632 
 O    0.0000000000000    0.0000000000000    1.9434039459060 
 O    0.0000000000000    0.0000000000000    5.8302121431905 
 O    0.0000000000000    0.0000000000000    9.7957674406482 
 O    0.0000000000000    0.0000000000000   13.6033739949371 
 O    1.9434040846232    1.9434040846232   16.1553927569466 
21
FORCE:  0.051577  ...  ENERGY:  -126.64348976
Sr    1.9434040846232    1.9434040846232    1.9434039459060 
Sr    1.9434040846232    1.9434040846232    5.8302121431905 
Sr    1.9434040846232    1.9434040846232    9.7704373698402 
Sr    1.9434040846232    1.9434040846232   13.5869872374399 
Fe    0.0000000000000    0.0000000000000    0.0000000000000 
Fe    0.0000000000000    0.0000000000000    3.8868081972844 
Fe    0.0000000000000    0.0000000000000    7.8126743917420 
Fe    0.0000000000000    0.0000000000000   11.7479283617458 
 O    1.9434040846232    0.0000000000000   -0.0000000000000 
 O    1.9434040846232    0.0000000000000    3.8868081972844 
 O    1.9434040846232    0.0000000000000    7.8063556966627 
 O    1.9434040846232    0.0000000000000   11.7138801107317 
 O    0.0000000000000    1.9434040846232    0.0000000000000 
 O    0.0000000000000    1.9434040846232    3.8868081972844 
 O    0.0000000000000    1.9434040846232    7.8063556966627 
 O    0.0000000000000    1.9434040846232   11.7138801107317 
 O    0.0000000000000    0.0000000000000    1.9434039459060 
 O    0.0000000000000    0.0000000000000    5.8302121431905 
 O    0.0000000000000    0.0000000000000    9.7956519721087 
 O    0.0000000000000    0.0000000000000   13.6034879361150 
 O    1.9434040846232    1.9434040846232   16.1555653488112 
21
FORCE:  0.007630  ...  ENERGY:  -126.64315730
Sr    1.9434040846232    1.9434040846232    1.9434039459060 
Sr    1.9434040846232    1.9434040846232    5.8302121431905 
Sr    1.9434040846232    1.9434040846232    9.7705152652835 
Sr    1.9434040846232    1.9434040846232   13.5870165627832 
Fe    0.0000000000000    0.0000000000000    0.0000000000000 
Fe    0.0000000000000    0.0000000000000    3.8868081972844 
Fe    0.0000000000000    0.0000000000000    7.8124715581170 
Fe    0.0000000000000    0.0000000000000   11.7478483279962 
 O    1.9434040846232    0.0000000000000   -0.0000000000000 
 O    1.9434040846232    0.0000000000000    3.8868081972844 
 O    1.9434040846232    0.0000000000000    7.8059405597707 
 O    1.9434040846232    0.0000000000000   11.7138593386135 
 O    0.0000000000000    1.9434040846232    0.0000000000000 
 O    0.0000000000000    1.9434040846232    3.8868081972844 
 O    0.0000000000000    1.9434040846232    7.8059405597707 
 O    0.0000000000000    1.9434040846232   11.7138593386135 
 O    0.0000000000000    0.0000000000000    1.9434039459060 
 O    0.0000000000000    0.0000000000000    5.8302121431905 
 O    0.0000000000000    0.0000000000000    9.7954210350297 
 O    0.0000000000000    0.0000000000000   13.6037164294154 
 O    1.9434040846232    1.9434040846232   16.1559099215958 
